<?xml version="1.0" encoding="UTF-8"?>

<!-- generated on Mon Jan 13 15:37:26 2020 by Eclipse SUMO duarouter Version 1.2.0
<configuration xmlns:xsi="http://www.w3.org/2001/XMLSchema-instance" xsi:noNamespaceSchemaLocation="http://sumo.dlr.de/xsd/duarouterConfiguration.xsd">

    <input>
        <net-file value="/home/lynn/Sumo/2020-01-13-15-37-21/osm.net.xml"/>
        <route-files value="/home/lynn/Sumo/2020-01-13-15-37-21/osm.passenger.trips.xml"/>
    </input>

    <output>
        <output-file value="/home/lynn/Sumo/2020-01-13-15-37-21/osm.passenger.trips.xml.tmp"/>
        <write-trips value="true"/>
    </output>

    <time>
        <begin value="0"/>
        <end value="3600.0"/>
    </time>

    <report>
        <no-warnings value="true"/>
        <ignore-errors value="true"/>
        <no-step-log value="true"/>
    </report>

</configuration>
-->

<routes xmlns:xsi="http://www.w3.org/2001/XMLSchema-instance" xsi:noNamespaceSchemaLocation="http://sumo.dlr.de/xsd/routes_file.xsd">
    <vType id="veh_passenger" vClass="passenger"/>
    <trip id="veh0" type="veh_passenger" depart="0.00" departLane="best" from="362368395#5" to="362368395#11"/>
    <trip id="veh1" type="veh_passenger" depart="1.82" departLane="best" departSpeed="max" from="376401312#0" to="-27222779#0"/>
    <trip id="veh2" type="veh_passenger" depart="3.64" departLane="best" departSpeed="max" from="134941607#0" to="147557400#5"/>
    <trip id="veh3" type="veh_passenger" depart="5.46" departLane="best" departSpeed="max" from="344664988#0" to="16786179#2"/>
    <trip id="veh4" type="veh_passenger" depart="7.28" departLane="best" departSpeed="max" from="134941607#0" to="362368395#11"/>
    <trip id="veh5" type="veh_passenger" depart="9.10" departLane="best" departSpeed="max" from="376401312#0" to="-27222779#0"/>
    <trip id="veh6" type="veh_passenger" depart="10.92" departLane="best" departSpeed="max" from="376401312#0" to="362368395#11"/>
    <trip id="veh7" type="veh_passenger" depart="12.74" departLane="best" departSpeed="max" from="16786179#0" to="-344664988#0"/>
    <trip id="veh8" type="veh_passenger" depart="14.56" departLane="best" departSpeed="max" from="-51508352#6" to="-27222779#2"/>
    <trip id="veh9" type="veh_passenger" depart="16.38" departLane="best" departSpeed="max" from="376401312#0" to="362368395#11"/>
    <trip id="veh10" type="veh_passenger" depart="18.20" departLane="best" departSpeed="max" from="376401312#0" to="362368395#11"/>
    <trip id="veh12" type="veh_passenger" depart="21.84" departLane="best" departSpeed="max" from="16786179#0" to="344664988#1"/>
    <trip id="veh13" type="veh_passenger" depart="23.66" departLane="best" departSpeed="max" from="376401312#0" to="362368395#11"/>
    <trip id="veh14" type="veh_passenger" depart="25.48" departLane="best" departSpeed="max" from="376401312#0" to="362368395#11"/>
    <trip id="veh15" type="veh_passenger" depart="27.30" departLane="best" departSpeed="max" from="134941607#0" to="134929400#2"/>
    <trip id="veh16" type="veh_passenger" depart="29.12" departLane="best" departSpeed="max" from="-51508352#6" to="134929400#2"/>
    <trip id="veh17" type="veh_passenger" depart="30.94" departLane="best" departSpeed="max" from="-51508352#6" to="134929400#2"/>
    <trip id="veh18" type="veh_passenger" depart="32.76" departLane="best" departSpeed="max" from="344664988#0" to="147557400#5"/>
    <trip id="veh19" type="veh_passenger" depart="34.58" departLane="best" departSpeed="max" from="16786179#0" to="-51476080#0"/>
    <trip id="veh21" type="veh_passenger" depart="38.22" departLane="best" departSpeed="max" from="344664988#0" to="362368395#11"/>
    <trip id="veh22" type="veh_passenger" depart="40.04" departLane="best" departSpeed="max" from="134941607#0" to="362368395#11"/>
    <trip id="veh23" type="veh_passenger" depart="41.86" departLane="best" departSpeed="max" from="134941607#0" to="147557400#5"/>
    <trip id="veh24" type="veh_passenger" depart="43.68" departLane="best" from="51508352#0" to="362368395#11"/>
    <trip id="veh26" type="veh_passenger" depart="47.31" departLane="best" departSpeed="max" from="376401312#0" to="40317921#3"/>
    <trip id="veh27" type="veh_passenger" depart="49.13" departLane="best" departSpeed="max" from="134941607#0" to="-27222779#0"/>
    <trip id="veh28" type="veh_passenger" depart="50.95" departLane="best" departSpeed="max" from="16786179#0" to="134929400#2"/>
    <trip id="veh29" type="veh_passenger" depart="52.77" departLane="best" departSpeed="max" from="134941607#0" to="51508352#2"/>
    <trip id="veh30" type="veh_passenger" depart="54.59" departLane="best" departSpeed="max" from="344664988#0" to="147557400#5"/>
    <trip id="veh31" type="veh_passenger" depart="56.41" departLane="best" departSpeed="max" from="376401312#0" to="147557400#5"/>
    <trip id="veh35" type="veh_passenger" depart="63.69" departLane="best" departSpeed="max" from="27222779#0" to="-51476080#6"/>
    <trip id="veh36" type="veh_passenger" depart="65.51" departLane="best" from="58561800#1" to="147557400#5"/>
    <trip id="veh37" type="veh_passenger" depart="67.33" departLane="best" departSpeed="max" from="-51508352#6" to="-27222779#0"/>
    <trip id="veh38" type="veh_passenger" depart="69.15" departLane="best" departSpeed="max" from="-51508352#6" to="362368395#11"/>
    <trip id="veh39" type="veh_passenger" depart="70.97" departLane="best" departSpeed="max" from="376401312#0" to="147557400#5"/>
    <trip id="veh40" type="veh_passenger" depart="72.79" departLane="best" departSpeed="max" from="-51508352#6" to="147557400#5"/>
    <trip id="veh41" type="veh_passenger" depart="74.61" departLane="best" from="51476080#0" to="4645392#1"/>
    <trip id="veh42" type="veh_passenger" depart="76.43" departLane="best" from="-40317921#0" to="362368395#11"/>
    <trip id="veh43" type="veh_passenger" depart="78.25" departLane="best" departSpeed="max" from="344664988#0" to="149935566#2"/>
    <trip id="veh45" type="veh_passenger" depart="81.89" departLane="best" departSpeed="max" from="-51508352#6" to="147557400#5"/>
    <trip id="veh46" type="veh_passenger" depart="83.71" departLane="best" departSpeed="max" from="27222779#0" to="51508352#2"/>
    <trip id="veh47" type="veh_passenger" depart="85.53" departLane="best" departSpeed="max" from="376401312#0" to="4645392#1"/>
    <trip id="veh48" type="veh_passenger" depart="87.35" departLane="best" departSpeed="max" from="16786179#0" to="362368395#11"/>
    <trip id="veh49" type="veh_passenger" depart="89.17" departLane="best" departSpeed="max" from="376401312#0" to="149935566#3"/>
    <trip id="veh50" type="veh_passenger" depart="90.99" departLane="best" from="-27222779#1" to="147557400#0"/>
    <trip id="veh51" type="veh_passenger" depart="92.81" departLane="best" from="-40317922#0" to="51508352#2"/>
    <trip id="veh52" type="veh_passenger" depart="94.63" departLane="best" departSpeed="max" from="376401312#0" to="4645392#1"/>
    <trip id="veh53" type="veh_passenger" depart="96.45" departLane="best" departSpeed="max" from="16786179#0" to="-27222779#0"/>
    <trip id="veh54" type="veh_passenger" depart="98.27" departLane="best" departSpeed="max" from="376401312#0" to="51508352#2"/>
    <trip id="veh55" type="veh_passenger" depart="100.09" departLane="best" departSpeed="max" from="-51508352#6" to="147557400#5"/>
    <trip id="veh56" type="veh_passenger" depart="101.91" departLane="best" departSpeed="max" from="-51508352#6" to="362368395#5"/>
    <trip id="veh57" type="veh_passenger" depart="103.73" departLane="best" departSpeed="max" from="376401312#0" to="-344664988#0"/>
    <trip id="veh58" type="veh_passenger" depart="105.55" departLane="best" departSpeed="max" from="27222779#0" to="-51476080#2"/>
    <trip id="veh60" type="veh_passenger" depart="109.19" departLane="best" departSpeed="max" from="134941607#0" to="134929400#2"/>
    <trip id="veh61" type="veh_passenger" depart="111.01" departLane="best" from="58561799#1" to="362368395#11"/>
    <trip id="veh62" type="veh_passenger" depart="112.83" departLane="best" departSpeed="max" from="27222779#0" to="147557400#5"/>
    <trip id="veh63" type="veh_passenger" depart="114.65" departLane="best" departSpeed="max" from="-51508352#6" to="-51508352#0"/>
    <trip id="veh64" type="veh_passenger" depart="116.47" departLane="best" departSpeed="max" from="16786179#0" to="362368395#11"/>
    <trip id="veh65" type="veh_passenger" depart="118.29" departLane="best" departSpeed="max" from="134941607#0" to="-51476080#6"/>
    <trip id="veh66" type="veh_passenger" depart="120.11" departLane="best" departSpeed="max" from="-51508352#6" to="362368395#11"/>
    <trip id="veh67" type="veh_passenger" depart="121.93" departLane="best" departSpeed="max" from="134941607#0" to="51508352#2"/>
    <trip id="veh68" type="veh_passenger" depart="123.75" departLane="best" departSpeed="max" from="376401312#0" to="-27222779#0"/>
    <trip id="veh69" type="veh_passenger" depart="125.57" departLane="best" departSpeed="max" from="134941607#0" to="362368395#11"/>
    <trip id="veh70" type="veh_passenger" depart="127.39" departLane="best" departSpeed="max" from="134941607#0" to="-344664988#0"/>
    <trip id="veh71" type="veh_passenger" depart="129.21" departLane="best" departSpeed="max" from="376401312#0" to="362368395#11"/>
    <trip id="veh72" type="veh_passenger" depart="131.03" departLane="best" departSpeed="max" from="27222779#0" to="4645391"/>
    <trip id="veh73" type="veh_passenger" depart="132.85" departLane="best" departSpeed="max" from="376401312#0" to="-344664988#0"/>
    <trip id="veh74" type="veh_passenger" depart="134.66" departLane="best" departSpeed="max" from="-51508352#6" to="147557400#5"/>
    <trip id="veh75" type="veh_passenger" depart="136.48" departLane="best" departSpeed="max" from="27222779#0" to="147557400#5"/>
    <trip id="veh76" type="veh_passenger" depart="138.30" departLane="best" from="362368395#3" to="362368395#11"/>
    <trip id="veh77" type="veh_passenger" depart="140.12" departLane="best" departSpeed="max" from="27222779#0" to="147557400#5"/>
    <trip id="veh78" type="veh_passenger" depart="141.94" departLane="best" departSpeed="max" from="134941607#0" to="147557400#5"/>
    <trip id="veh79" type="veh_passenger" depart="143.76" departLane="best" departSpeed="max" from="27222779#0" to="134929400#2"/>
    <trip id="veh80" type="veh_passenger" depart="145.58" departLane="best" departSpeed="max" from="134941607#0" to="51508352#2"/>
    <trip id="veh81" type="veh_passenger" depart="147.40" departLane="best" departSpeed="max" from="27222779#0" to="4645392#1"/>
    <trip id="veh83" type="veh_passenger" depart="151.04" departLane="best" from="58561800#1" to="4645392#1"/>
    <trip id="veh85" type="veh_passenger" depart="154.68" departLane="best" departSpeed="max" from="376401312#0" to="-344664988#0"/>
    <trip id="veh86" type="veh_passenger" depart="156.50" departLane="best" departSpeed="max" from="27222779#0" to="-51476080#3"/>
    <trip id="veh87" type="veh_passenger" depart="158.32" departLane="best" departSpeed="max" from="16786179#0" to="51508352#2"/>
    <trip id="veh88" type="veh_passenger" depart="160.14" departLane="best" departSpeed="max" from="27222779#0" to="147557400#5"/>
    <trip id="veh90" type="veh_passenger" depart="163.78" departLane="best" departSpeed="max" from="134941607#0" to="134929400#2"/>
    <trip id="veh93" type="veh_passenger" depart="169.24" departLane="best" departSpeed="max" from="-51508352#6" to="362368395#11"/>
    <trip id="veh94" type="veh_passenger" depart="171.06" departLane="best" departSpeed="max" from="134941607#0" to="51508352#2"/>
    <trip id="veh95" type="veh_passenger" depart="172.88" departLane="best" departSpeed="max" from="-51508352#6" to="-344664988#0"/>
    <trip id="veh97" type="veh_passenger" depart="176.52" departLane="best" departSpeed="max" from="134941607#0" to="-344664988#0"/>
    <trip id="veh99" type="veh_passenger" depart="180.16" departLane="best" departSpeed="max" from="27222779#0" to="362368395#11"/>
    <trip id="veh101" type="veh_passenger" depart="183.80" departLane="best" departSpeed="max" from="134941607#0" to="362368395#11"/>
    <trip id="veh102" type="veh_passenger" depart="185.62" departLane="best" departSpeed="max" from="134941607#0" to="147557400#5"/>
    <trip id="veh103" type="veh_passenger" depart="187.44" departLane="best" departSpeed="max" from="344664988#0" to="134929400#2"/>
    <trip id="veh104" type="veh_passenger" depart="189.26" departLane="best" departSpeed="max" from="16786179#0" to="362368395#3"/>
    <trip id="veh105" type="veh_passenger" depart="191.08" departLane="best" departSpeed="max" from="-51508352#6" to="147557400#5"/>
    <trip id="veh106" type="veh_passenger" depart="192.90" departLane="best" departSpeed="max" from="-51508352#6" to="-51476080#2"/>
    <trip id="veh108" type="veh_passenger" depart="196.54" departLane="best" departSpeed="max" from="376401312#0" to="4645392#1"/>
    <trip id="veh109" type="veh_passenger" depart="198.36" departLane="best" departSpeed="max" from="16786179#0" to="-344664988#0"/>
    <trip id="veh110" type="veh_passenger" depart="200.18" departLane="best" departSpeed="max" from="376401312#0" to="362368395#11"/>
    <trip id="veh111" type="veh_passenger" depart="202.00" departLane="best" departSpeed="max" from="344664988#0" to="51508352#2"/>
    <trip id="veh112" type="veh_passenger" depart="203.82" departLane="best" departSpeed="max" from="344664988#0" to="51508352#2"/>
    <trip id="veh113" type="veh_passenger" depart="205.64" departLane="best" departSpeed="max" from="-51508352#6" to="-344664988#0"/>
    <trip id="veh114" type="veh_passenger" depart="207.46" departLane="best" departSpeed="max" from="-51508352#6" to="362368395#0"/>
    <trip id="veh115" type="veh_passenger" depart="209.28" departLane="best" from="149935566#0" to="362368395#11"/>
    <trip id="veh117" type="veh_passenger" depart="212.92" departLane="best" departSpeed="max" from="344664988#0" to="134929400#2"/>
    <trip id="veh118" type="veh_passenger" depart="214.74" departLane="best" departSpeed="max" from="27222779#0" to="51508352#2"/>
    <trip id="veh119" type="veh_passenger" depart="216.56" departLane="best" departSpeed="max" from="376401312#0" to="-27222779#0"/>
    <trip id="veh120" type="veh_passenger" depart="218.38" departLane="best" departSpeed="max" from="27222779#0" to="134929400#2"/>
    <trip id="veh121" type="veh_passenger" depart="220.20" departLane="best" from="-27222779#2" to="40317921#0"/>
    <trip id="veh122" type="veh_passenger" depart="222.01" departLane="best" departSpeed="max" from="344664988#0" to="134929400#2"/>
    <trip id="veh123" type="veh_passenger" depart="223.83" departLane="best" departSpeed="max" from="-51508352#6" to="51476080#1"/>
    <trip id="veh124" type="veh_passenger" depart="225.65" departLane="best" departSpeed="max" from="376401312#0" to="27222779#1"/>
    <trip id="veh125" type="veh_passenger" depart="227.47" departLane="best" departSpeed="max" from="376401312#0" to="362368395#11"/>
    <trip id="veh127" type="veh_passenger" depart="231.11" departLane="best" departSpeed="max" from="16786179#0" to="51508352#2"/>
    <trip id="veh128" type="veh_passenger" depart="232.93" departLane="best" departSpeed="max" from="376401312#0" to="4645392#1"/>
    <trip id="veh129" type="veh_passenger" depart="234.75" departLane="best" departSpeed="max" from="376401312#0" to="-51476080#1"/>
    <trip id="veh130" type="veh_passenger" depart="236.57" departLane="best" departSpeed="max" from="134941607#0" to="-344664988#0"/>
    <trip id="veh131" type="veh_passenger" depart="238.39" departLane="best" departSpeed="max" from="27222779#0" to="362368395#11"/>
    <trip id="veh132" type="veh_passenger" depart="240.21" departLane="best" departSpeed="max" from="134941607#0" to="51508352#2"/>
    <trip id="veh133" type="veh_passenger" depart="242.03" departLane="best" departSpeed="max" from="376401312#0" to="51508352#2"/>
    <trip id="veh134" type="veh_passenger" depart="243.85" departLane="best" departSpeed="max" from="376401312#0" to="51476080#0"/>
    <trip id="veh135" type="veh_passenger" depart="245.67" departLane="best" from="-51476080#0" to="362368395#11"/>
    <trip id="veh136" type="veh_passenger" depart="247.49" departLane="best" departSpeed="max" from="16786179#0" to="51508352#2"/>
    <trip id="veh137" type="veh_passenger" depart="249.31" departLane="best" departSpeed="max" from="376401312#0" to="4645392#1"/>
    <trip id="veh138" type="veh_passenger" depart="251.13" departLane="best" departSpeed="max" from="376401312#0" to="-344664988#0"/>
    <trip id="veh139" type="veh_passenger" depart="252.95" departLane="best" departSpeed="max" from="376401312#0" to="4645392#1"/>
    <trip id="veh140" type="veh_passenger" depart="254.77" departLane="best" departSpeed="max" from="27222779#0" to="134929400#2"/>
    <trip id="veh141" type="veh_passenger" depart="256.59" departLane="best" from="40317927" to="134929400#2"/>
    <trip id="veh142" type="veh_passenger" depart="258.41" departLane="best" departSpeed="max" from="344664988#0" to="147557400#5"/>
    <trip id="veh143" type="veh_passenger" depart="260.23" departLane="best" departSpeed="max" from="376401312#0" to="-344664988#0"/>
    <trip id="veh144" type="veh_passenger" depart="262.05" departLane="best" from="40317922#0" to="134929400#2"/>
    <trip id="veh145" type="veh_passenger" depart="263.87" departLane="best" departSpeed="max" from="-51508352#6" to="147557400#5"/>
    <trip id="veh146" type="veh_passenger" depart="265.69" departLane="best" from="362368395#3" to="134929400#2"/>
    <trip id="veh147" type="veh_passenger" depart="267.51" departLane="best" departSpeed="max" from="16786179#0" to="362368395#11"/>
    <trip id="veh149" type="veh_passenger" depart="271.15" departLane="best" from="-27222779#1" to="51508352#2"/>
    <trip id="veh151" type="veh_passenger" depart="274.79" departLane="best" departSpeed="max" from="376401312#0" to="362368395#11"/>
    <trip id="veh152" type="veh_passenger" depart="276.61" departLane="best" departSpeed="max" from="16786179#0" to="-27222779#0"/>
    <trip id="veh153" type="veh_passenger" depart="278.43" departLane="best" departSpeed="max" from="344664988#0" to="147557400#2"/>
    <trip id="veh155" type="veh_passenger" depart="282.07" departLane="best" departSpeed="max" from="27222779#0" to="134929400#2"/>
    <trip id="veh156" type="veh_passenger" depart="283.89" departLane="best" departSpeed="max" from="-51508352#6" to="147557400#5"/>
    <trip id="veh157" type="veh_passenger" depart="285.71" departLane="best" departSpeed="max" from="376401312#0" to="362368395#11"/>
    <trip id="veh158" type="veh_passenger" depart="287.53" departLane="best" departSpeed="max" from="376401312#0" to="362368395#11"/>
    <trip id="veh159" type="veh_passenger" depart="289.35" departLane="best" departSpeed="max" from="16786179#0" to="27222779#2"/>
    <trip id="veh160" type="veh_passenger" depart="291.17" departLane="best" from="-27222779#1" to="134929400#2"/>
    <trip id="veh161" type="veh_passenger" depart="292.99" departLane="best" departSpeed="max" from="27222779#0" to="362368395#11"/>
    <trip id="veh162" type="veh_passenger" depart="294.81" departLane="best" departSpeed="max" from="344664988#0" to="147557400#5"/>
    <trip id="veh163" type="veh_passenger" depart="296.63" departLane="best" departSpeed="max" from="27222779#0" to="-51476080#3"/>
    <trip id="veh164" type="veh_passenger" depart="298.45" departLane="best" departSpeed="max" from="27222779#0" to="51508352#2"/>
    <trip id="veh165" type="veh_passenger" depart="300.27" departLane="best" departSpeed="max" from="376401312#0" to="-344664988#0"/>
    <trip id="veh166" type="veh_passenger" depart="302.09" departLane="best" departSpeed="max" from="-51508352#6" to="147557400#5"/>
    <trip id="veh167" type="veh_passenger" depart="303.91" departLane="best" departSpeed="max" from="344664988#0" to="147557400#3"/>
    <trip id="veh168" type="veh_passenger" depart="305.73" departLane="best" departSpeed="max" from="376401312#0" to="362368395#3"/>
    <trip id="veh169" type="veh_passenger" depart="307.55" departLane="best" departSpeed="max" from="344664988#0" to="-51508352#0"/>
    <trip id="veh170" type="veh_passenger" depart="309.37" departLane="best" departSpeed="max" from="134941607#0" to="-27222779#0"/>
    <trip id="veh171" type="veh_passenger" depart="311.18" departLane="best" departSpeed="max" from="134941607#0" to="147557400#5"/>
    <trip id="veh172" type="veh_passenger" depart="313.00" departLane="best" departSpeed="max" from="376401312#0" to="-27222779#0"/>
    <trip id="veh173" type="veh_passenger" depart="314.82" departLane="best" departSpeed="max" from="27222779#0" to="362368395#11"/>
    <trip id="veh174" type="veh_passenger" depart="316.64" departLane="best" departSpeed="max" from="134941607#0" to="362368395#11"/>
    <trip id="veh175" type="veh_passenger" depart="318.46" departLane="best" departSpeed="max" from="27222779#0" to="134929400#2"/>
    <trip id="veh176" type="veh_passenger" depart="320.28" departLane="best" departSpeed="max" from="376401312#0" to="40317921#0"/>
    <trip id="veh177" type="veh_passenger" depart="322.10" departLane="best" departSpeed="max" from="-51508352#6" to="147557400#5"/>
    <trip id="veh178" type="veh_passenger" depart="323.92" departLane="best" departSpeed="max" from="134941607#0" to="51508352#2"/>
    <trip id="veh180" type="veh_passenger" depart="327.56" departLane="best" departSpeed="max" from="27222779#0" to="4645392#1"/>
    <trip id="veh181" type="veh_passenger" depart="329.38" departLane="best" departSpeed="max" from="344664988#0" to="51508352#2"/>
    <trip id="veh183" type="veh_passenger" depart="333.02" departLane="best" departSpeed="max" from="376401312#0" to="362368395#11"/>
    <trip id="veh185" type="veh_passenger" depart="336.66" departLane="best" departSpeed="max" from="376401312#0" to="27222779#2"/>
    <trip id="veh186" type="veh_passenger" depart="338.48" departLane="best" departSpeed="max" from="376401312#0" to="362368395#11"/>
    <trip id="veh187" type="veh_passenger" depart="340.30" departLane="best" departSpeed="max" from="27222779#0" to="134929400#2"/>
    <trip id="veh188" type="veh_passenger" depart="342.12" departLane="best" departSpeed="max" from="134941607#0" to="362368395#11"/>
    <trip id="veh189" type="veh_passenger" depart="343.94" departLane="best" departSpeed="max" from="376401312#0" to="147557400#5"/>
    <trip id="veh190" type="veh_passenger" depart="345.76" departLane="best" departSpeed="max" from="344664988#0" to="134929400#2"/>
    <trip id="veh191" type="veh_passenger" depart="347.58" departLane="best" departSpeed="max" from="-51508352#6" to="134929400#2"/>
    <trip id="veh193" type="veh_passenger" depart="351.22" departLane="best" departSpeed="max" from="134941607#0" to="362368395#11"/>
    <trip id="veh194" type="veh_passenger" depart="353.04" departLane="best" departSpeed="max" from="27222779#0" to="16786179#1"/>
    <trip id="veh195" type="veh_passenger" depart="354.86" departLane="best" departSpeed="max" from="27222779#0" to="-4645391"/>
    <trip id="veh196" type="veh_passenger" depart="356.68" departLane="best" departSpeed="max" from="27222779#0" to="51508352#2"/>
    <trip id="veh198" type="veh_passenger" depart="360.32" departLane="best" departSpeed="max" from="376401312#0" to="362368395#9"/>
    <trip id="veh199" type="veh_passenger" depart="362.14" departLane="best" departSpeed="max" from="16786179#0" to="-27222779#0"/>
    <trip id="veh200" type="veh_passenger" depart="363.96" departLane="best" departSpeed="max" from="16786179#0" to="362368395#3"/>
    <trip id="veh201" type="veh_passenger" depart="365.78" departLane="best" departSpeed="max" from="376401312#0" to="51508352#2"/>
    <trip id="veh203" type="veh_passenger" depart="369.42" departLane="best" departSpeed="max" from="134941607#0" to="-51476080#6"/>
    <trip id="veh204" type="veh_passenger" depart="371.24" departLane="best" departSpeed="max" from="16786179#0" to="362368395#11"/>
    <trip id="veh205" type="veh_passenger" depart="373.06" departLane="best" from="16786179#2" to="362368395#11"/>
    <trip id="veh206" type="veh_passenger" depart="374.88" departLane="best" from="-51476080#2" to="362368395#11"/>
    <trip id="veh207" type="veh_passenger" depart="376.70" departLane="best" departSpeed="max" from="-51508352#6" to="147557400#5"/>
    <trip id="veh208" type="veh_passenger" depart="378.52" departLane="best" departSpeed="max" from="-51508352#6" to="147557400#5"/>
    <trip id="veh209" type="veh_passenger" depart="380.34" departLane="best" departSpeed="max" from="134941607#0" to="147557400#0"/>
    <trip id="veh210" type="veh_passenger" depart="382.16" departLane="best" departSpeed="max" from="376401312#0" to="147557400#5"/>
    <trip id="veh211" type="veh_passenger" depart="383.98" departLane="best" departSpeed="max" from="376401312#0" to="4645392#1"/>
    <trip id="veh212" type="veh_passenger" depart="385.80" departLane="best" from="58561800#1" to="147557400#5"/>
    <trip id="veh213" type="veh_passenger" depart="387.62" departLane="best" departSpeed="max" from="-51508352#6" to="362368395#11"/>
    <trip id="veh216" type="veh_passenger" depart="393.08" departLane="best" departSpeed="max" from="134941607#0" to="362368395#11"/>
    <trip id="veh217" type="veh_passenger" depart="394.90" departLane="best" departSpeed="max" from="376401312#0" to="-344664988#0"/>
    <trip id="veh218" type="veh_passenger" depart="396.72" departLane="best" departSpeed="max" from="376401312#0" to="51508352#2"/>
    <trip id="veh219" type="veh_passenger" depart="398.54" departLane="best" departSpeed="max" from="-51508352#6" to="-27222779#0"/>
    <trip id="veh220" type="veh_passenger" depart="400.35" departLane="best" departSpeed="max" from="16786179#0" to="362368395#11"/>
    <trip id="veh221" type="veh_passenger" depart="402.17" departLane="best" departSpeed="max" from="344664988#0" to="362368395#11"/>
    <trip id="veh222" type="veh_passenger" depart="403.99" departLane="best" departSpeed="max" from="-51508352#6" to="40317921#1"/>
    <trip id="veh223" type="veh_passenger" depart="405.81" departLane="best" departSpeed="max" from="376401312#0" to="362368395#11"/>
    <trip id="veh224" type="veh_passenger" depart="407.63" departLane="best" departSpeed="max" from="376401312#0" to="147557400#5"/>
    <trip id="veh225" type="veh_passenger" depart="409.45" departLane="best" departSpeed="max" from="27222779#0" to="147557400#5"/>
    <trip id="veh226" type="veh_passenger" depart="411.27" departLane="best" departSpeed="max" from="376401312#0" to="4645392#1"/>
    <trip id="veh227" type="veh_passenger" depart="413.09" departLane="best" departSpeed="max" from="344664988#0" to="4645392#1"/>
    <trip id="veh228" type="veh_passenger" depart="414.91" departLane="best" departSpeed="max" from="344664988#0" to="147557400#5"/>
    <trip id="veh229" type="veh_passenger" depart="416.73" departLane="best" from="362368395#5" to="51508352#2"/>
    <trip id="veh230" type="veh_passenger" depart="418.55" departLane="best" departSpeed="max" from="27222779#0" to="362368395#11"/>
    <trip id="veh231" type="veh_passenger" depart="420.37" departLane="best" departSpeed="max" from="376401312#0" to="-27222779#0"/>
    <trip id="veh232" type="veh_passenger" depart="422.19" departLane="best" departSpeed="max" from="27222779#0" to="362368395#11"/>
    <trip id="veh233" type="veh_passenger" depart="424.01" departLane="best" departSpeed="max" from="16786179#0" to="-27222779#0"/>
    <trip id="veh234" type="veh_passenger" depart="425.83" departLane="best" departSpeed="max" from="376401312#0" to="-344664988#0"/>
    <trip id="veh235" type="veh_passenger" depart="427.65" departLane="best" departSpeed="max" from="16786179#0" to="51476080#0"/>
    <trip id="veh236" type="veh_passenger" depart="429.47" departLane="best" departSpeed="max" from="344664988#0" to="134929400#2"/>
    <trip id="veh237" type="veh_passenger" depart="431.29" departLane="best" from="-392103887" to="51508352#2"/>
    <trip id="veh238" type="veh_passenger" depart="433.11" departLane="best" departSpeed="max" from="-51508352#6" to="362368395#11"/>
    <trip id="veh239" type="veh_passenger" depart="434.93" departLane="best" departSpeed="max" from="27222779#0" to="362368395#4"/>
    <trip id="veh240" type="veh_passenger" depart="436.75" departLane="best" departSpeed="max" from="344664988#0" to="362368395#11"/>
    <trip id="veh241" type="veh_passenger" depart="438.57" departLane="best" departSpeed="max" from="27222779#0" to="4645392#1"/>
    <trip id="veh242" type="veh_passenger" depart="440.39" departLane="best" departSpeed="max" from="-51508352#6" to="-51476080#7"/>
    <trip id="veh243" type="veh_passenger" depart="442.21" departLane="best" departSpeed="max" from="344664988#0" to="134929400#2"/>
    <trip id="veh244" type="veh_passenger" depart="444.03" departLane="best" departSpeed="max" from="376401312#0" to="147557400#2"/>
    <trip id="veh245" type="veh_passenger" depart="445.85" departLane="best" departSpeed="max" from="344664988#0" to="134929400#2"/>
    <trip id="veh246" type="veh_passenger" depart="447.67" departLane="best" departSpeed="max" from="134941607#0" to="-344664988#0"/>
    <trip id="veh247" type="veh_passenger" depart="449.49" departLane="best" departSpeed="max" from="134941607#0" to="-344664988#0"/>
    <trip id="veh249" type="veh_passenger" depart="453.13" departLane="best" departSpeed="max" from="134941607#0" to="-51476080#4"/>
    <trip id="veh250" type="veh_passenger" depart="454.95" departLane="best" departSpeed="max" from="27222779#0" to="362368395#11"/>
    <trip id="veh251" type="veh_passenger" depart="456.77" departLane="best" from="51476080#2" to="147557400#5"/>
    <trip id="veh252" type="veh_passenger" depart="458.59" departLane="best" from="149935566#2" to="-344664988#0"/>