<?xml version="1.0" encoding="UTF-8"?>

<!-- generated on Mon 13 Jan 2020 04:12:53 PM CET by Eclipse SUMO netedit Version 1.2.0
<configuration xmlns:xsi="http://www.w3.org/2001/XMLSchema-instance" xsi:noNamespaceSchemaLocation="http://sumo.dlr.de/xsd/netconvertConfiguration.xsd">

    <input>
        <sumo-net-file value="/home/lynn/Sumo/2020-01-13-15-37-21/osm.net.xml"/>
    </input>

    <output>
        <output-file value="/home/lynn/Sumo/2020-01-13-15-37-21/osm.net.xml"/>
        <output.street-names value="true"/>
    </output>

    <processing>
        <geometry.max-grade.fix value="false"/>
        <offset.disable-normalization value="true"/>
        <lefthand value="false"/>
    </processing>

    <junctions>
        <no-turnarounds value="true"/>
        <junctions.corner-detail value="5"/>
        <junctions.limit-turn-speed value="5.5"/>
        <rectangular-lane-cut value="false"/>
    </junctions>

    <pedestrian>
        <walkingareas value="false"/>
    </pedestrian>

    <netedit>
        <additional-files value="/home/lynn/Sumo/2020-01-13-15-37-21/osm.det.xml"/>
    </netedit>

    <visualisation>
        <registry-viewport value="true"/>
    </visualisation>

</configuration>
-->

<additional xmlns:xsi="http://www.w3.org/2001/XMLSchema-instance" xsi:noNamespaceSchemaLocation="http://sumo.dlr.de/xsd/additional_file.xsd">
    <e1Detector id="e1Detector_-27222779#3_0_11" lane="-27222779#3_0" pos="8.52" freq="900.00" file="e1Detector_-27222779#3_0_11.xml"/>
    <e1Detector id="e1Detector_-344664988#1_0_9" lane="-344664988#1_0" pos="8.60" freq="900.00" file="e1Detector_-344664988#1_0_9.xml"/>
    <e1Detector id="e1Detector_-40317921#0_0_15" lane="-40317921#0_0" pos="9.02" freq="900.00" file="e1Detector_-40317921#0_0_15.xml"/>
    <e1Detector id="e1Detector_-51508352#1_0_0" lane="-51508352#1_0" pos="98.13" freq="900.00" file="e1Detector_-51508352#1_0_0.xml"/>
    <e1Detector id="e1Detector_-51508352#1_0_2" lane="-51508352#1_0" pos="98.10" freq="900.00" file="e1Detector_-51508352#1_0_2.xml"/>
    <e1Detector id="e1Detector_134941607#2_0_12" lane="134941607#2_0" pos="55.21" freq="900.00" file="e1Detector_134941607#2_0_12.xml"/>
    <e1Detector id="e1Detector_147557400#0_0_14" lane="147557400#0_0" pos="10.39" freq="900.00" file="e1Detector_147557400#0_0_14.xml"/>
    <e1Detector id="e1Detector_147557400#0_1_13" lane="147557400#0_1" pos="10.20" freq="900.00" file="e1Detector_147557400#0_1_13.xml"/>
    <e1Detector id="e1Detector_27222779#3_0_10" lane="27222779#3_0" pos="12.03" freq="900.00" file="e1Detector_27222779#3_0_10.xml"/>
    <e1Detector id="e1Detector_344664988#1_0_8" lane="344664988#1_0" pos="4.22" freq="900.00" file="e1Detector_344664988#1_0_8.xml"/>
    <e1Detector id="e1Detector_362368395#9_0_7" lane="362368395#9_0" pos="19.56" freq="900.00" file="e1Detector_362368395#9_0_7.xml"/>
    <e1Detector id="e1Detector_362368395#9_1_6" lane="362368395#9_1" pos="19.87" freq="900.00" file="e1Detector_362368395#9_1_6.xml"/>
    <e1Detector id="e1Detector_376401312#0_0_4" lane="376401312#0_0" pos="186.13" freq="900.00" file="e1Detector_376401312#0_0_4.xml"/>
    <e1Detector id="e1Detector_376401312#0_1_5" lane="376401312#0_1" pos="186.26" freq="900.00" file="e1Detector_376401312#0_1_5.xml"/>
    <e1Detector id="e1Detector_40317921#0_0_16" lane="40317921#0_0" pos="5.24" freq="900.00" file="e1Detector_40317921#0_0_16.xml"/>
    <e1Detector id="e1Detector_51508352#1_0_1" lane="51508352#1_0" pos="8.02" freq="900.00" file="e1Detector_51508352#1_0_1.xml"/>
    <e1Detector id="e1Detector_51508352#1_0_3" lane="51508352#1_0" pos="7.71" freq="900.00" file="e1Detector_51508352#1_0_3.xml"/>
</additional>
