<net xmlns:xsi="http://www.w3.org/2001/XMLSchema-instance" junctionCornerDetail="5" limitTurnSpeed="5.50" version="1.1" xsi:noNamespaceSchemaLocation="http://sumo.dlr.de/xsd/net_file.xsd">

    <location convBoundary="0.00,0.00,995.82,1158.96" netOffset="-690379.25,-5335653.30" origBoundary="11.548225,48.117927,11.589900,48.166202" projParameter="+proj=utm +zone=32 +ellps=WGS84 +datum=WGS84 +units=m +no_defs" />

    <type allow="pedestrian" id="highway.bridleway" numLanes="1" oneway="1" priority="1" speed="2.78" width="2.00" />
    <type allow="bus" id="highway.bus_guideway" numLanes="1" oneway="1" priority="1" speed="27.78" />
    <type allow="bicycle" id="highway.cycleway" numLanes="1" oneway="0" priority="1" speed="8.33" width="1.00" />
    <type allow="pedestrian" id="highway.footway" numLanes="1" oneway="1" priority="1" speed="2.78" width="2.00" />
    <type allow="army" id="highway.ford" numLanes="1" oneway="0" priority="1" speed="2.78" />
    <type disallow="tram rail_urban rail rail_electric ship" id="highway.living_street" numLanes="1" oneway="0" priority="2" speed="2.78" />
    <type allow="private emergency authority army vip passenger hov taxi bus coach delivery truck trailer motorcycle evehicle custom1 custom2" id="highway.motorway" numLanes="2" oneway="1" priority="14" speed="39.44" />
    <type allow="private emergency authority army vip passenger hov taxi bus coach delivery truck trailer motorcycle evehicle custom1 custom2" id="highway.motorway_link" numLanes="1" oneway="1" priority="9" speed="22.22" />
    <type allow="bicycle pedestrian" id="highway.path" numLanes="1" oneway="1" priority="1" speed="2.78" width="2.00" />
    <type allow="pedestrian" id="highway.pedestrian" numLanes="1" oneway="1" priority="1" speed="2.78" width="2.00" />
    <type disallow="tram rail_urban rail rail_electric ship" id="highway.primary" numLanes="2" oneway="0" priority="12" speed="27.78" />
    <type disallow="tram rail_urban rail rail_electric ship" id="highway.primary_link" numLanes="1" oneway="0" priority="7" speed="22.22" />
    <type allow="vip" id="highway.raceway" numLanes="2" oneway="0" priority="15" speed="83.33" />
    <type disallow="tram rail_urban rail rail_electric ship" id="highway.residential" numLanes="1" oneway="0" priority="3" speed="13.89" />
    <type disallow="tram rail_urban rail rail_electric ship" id="highway.secondary" numLanes="2" oneway="0" priority="11" speed="27.78" />
    <type disallow="tram rail_urban rail rail_electric ship" id="highway.secondary_link" numLanes="1" oneway="0" priority="6" speed="22.22" />
    <type allow="delivery bicycle pedestrian" id="highway.service" numLanes="1" oneway="0" priority="1" speed="5.56" />
    <type allow="pedestrian" id="highway.stairs" numLanes="1" oneway="1" priority="1" speed="1.39" width="2.00" />
    <type allow="pedestrian" id="highway.step" numLanes="1" oneway="1" priority="1" speed="1.39" width="2.00" />
    <type allow="pedestrian" id="highway.steps" numLanes="1" oneway="1" priority="1" speed="1.39" width="2.00" />
    <type disallow="tram rail_urban rail rail_electric ship" id="highway.tertiary" numLanes="1" oneway="0" priority="10" speed="22.22" />
    <type disallow="tram rail_urban rail rail_electric ship" id="highway.tertiary_link" numLanes="1" oneway="0" priority="5" speed="22.22" />
    <type disallow="tram rail_urban rail rail_electric ship" id="highway.track" numLanes="1" oneway="0" priority="1" speed="5.56" />
    <type disallow="tram rail_urban rail rail_electric bicycle pedestrian ship" id="highway.trunk" numLanes="2" oneway="0" priority="13" speed="27.78" />
    <type disallow="tram rail_urban rail rail_electric bicycle pedestrian ship" id="highway.trunk_link" numLanes="1" oneway="0" priority="8" speed="22.22" />
    <type disallow="tram rail_urban rail rail_electric ship" id="highway.unclassified" numLanes="1" oneway="0" priority="4" speed="13.89" />
    <type disallow="tram rail_urban rail rail_electric ship" id="highway.unsurfaced" numLanes="1" oneway="0" priority="1" speed="8.33" />
    <type allow="rail_urban" id="railway.light_rail" numLanes="1" oneway="1" priority="19" speed="27.78" />
    <type allow="rail" id="railway.preserved" numLanes="1" oneway="1" priority="16" speed="27.78" />
    <type allow="rail rail_electric" id="railway.rail" numLanes="1" oneway="1" priority="20" speed="83.33" />
    <type allow="rail_urban" id="railway.subway" numLanes="1" oneway="1" priority="18" speed="27.78" />
    <type allow="tram" id="railway.tram" numLanes="1" oneway="1" priority="17" speed="13.89" />

    <edge function="internal" id=":130355233_0">
        <lane allow="delivery bicycle pedestrian" id=":130355233_0_0" index="0" length="5.02" shape="770.90,360.68 766.22,362.49" speed="5.56" />
    </edge>
    <edge function="internal" id=":130355233_1">
        <lane allow="delivery bicycle pedestrian" id=":130355233_1_0" index="0" length="4.67" shape="770.90,360.68 769.49,360.36 768.83,359.76 768.92,358.86 769.75,357.69" speed="3.65" />
    </edge>
    <edge function="internal" id=":130355233_2">
        <lane allow="delivery bicycle pedestrian" id=":130355233_2_0" index="0" length="5.05" shape="765.05,359.52 769.75,357.69" speed="5.56" />
    </edge>
    <edge function="internal" id=":130355233_3">
        <lane allow="delivery bicycle pedestrian" id=":130355233_3_0" index="0" length="4.67" shape="765.05,359.52 766.46,359.82 767.12,360.42 767.04,361.31 766.22,362.49" speed="3.65" />
    </edge>
    <edge function="internal" id=":130358856_0">
        <lane allow="delivery bicycle pedestrian" id=":130358856_0_0" index="0" length="7.11" shape="709.53,384.83 702.86,387.30" speed="5.56" />
    </edge>
    <edge function="internal" id=":130358856_1">
        <lane allow="delivery bicycle pedestrian" id=":130358856_1_0" index="0" length="2.34" shape="709.53,384.83 708.12,384.53 707.45,383.93" speed="3.65" />
    </edge>
    <edge function="internal" id=":130358856_4">
        <lane allow="delivery bicycle pedestrian" id=":130358856_4_0" index="0" length="2.34" shape="707.45,383.93 707.53,383.04 708.35,381.85" speed="3.65" />
    </edge>
    <edge function="internal" id=":130358856_2">
        <lane allow="delivery bicycle pedestrian" id=":130358856_2_0" index="0" length="7.01" shape="701.78,384.29 708.35,381.85" speed="5.56" />
    </edge>
    <edge function="internal" id=":130358856_3">
        <lane allow="delivery bicycle pedestrian" id=":130358856_3_0" index="0" length="2.34" shape="701.78,384.29 703.18,384.64 703.83,385.26" speed="3.65" />
    </edge>
    <edge function="internal" id=":130358856_5">
        <lane allow="delivery bicycle pedestrian" id=":130358856_5_0" index="0" length="2.34" shape="703.83,385.26 703.72,386.14 702.86,387.30" speed="3.65" />
    </edge>
    <edge function="internal" id=":130360326_0">
        <lane disallow="tram rail_urban rail rail_electric ship" id=":130360326_0_0" index="0" length="5.01" shape="725.91,203.36 730.61,201.59" speed="13.89" />
        <lane disallow="tram rail_urban rail rail_electric ship" id=":130360326_0_1" index="1" length="5.01" shape="727.04,206.36 731.73,204.59" speed="13.89" />
    </edge>
    <edge function="internal" id=":1326631454_0">
        <lane allow="delivery bicycle pedestrian" id=":1326631454_0_0" index="0" length="5.04" shape="725.42,381.96 724.77,380.73 723.89,380.02 722.78,379.82 721.43,380.14" speed="5.00" />
    </edge>
    <edge function="internal" id=":1326631454_1">
        <lane allow="delivery bicycle pedestrian" id=":1326631454_1_0" index="0" length="10.17" shape="725.42,381.96 724.85,379.20 725.25,376.90 726.64,375.08 729.00,373.72" speed="5.56" />
    </edge>
    <edge function="internal" id=":1326631454_2">
        <lane allow="delivery bicycle pedestrian" id=":1326631454_2_0" index="0" length="4.67" shape="725.42,381.96 725.77,380.56 726.39,379.92 727.28,380.03 728.44,380.89" speed="3.65" />
    </edge>
    <edge function="internal" id=":1326631454_3">
        <lane allow="delivery bicycle pedestrian" id=":1326631454_3_0" index="0" length="5.14" shape="730.18,376.70 729.01,377.38 728.32,378.30 728.13,379.48 728.44,380.89" speed="5.16" />
    </edge>
    <edge function="internal" id=":1326631454_4">
        <lane allow="delivery bicycle pedestrian" id=":1326631454_4_0" index="0" length="9.40" shape="730.18,376.70 721.43,380.14" speed="5.56" />
    </edge>
    <edge function="internal" id=":1326631454_5">
        <lane allow="delivery bicycle pedestrian" id=":1326631454_5_0" index="0" length="4.67" shape="730.18,376.70 728.77,376.39 728.10,375.79 728.18,374.90 729.00,373.72" speed="3.65" />
    </edge>
    <edge function="internal" id=":1326631454_6">
        <lane allow="delivery bicycle pedestrian" id=":1326631454_6_0" index="0" length="9.40" shape="720.26,377.16 729.00,373.72" speed="5.56" />
    </edge>
    <edge function="internal" id=":1326631454_7">
        <lane allow="delivery bicycle pedestrian" id=":1326631454_7_0" index="0" length="10.33" shape="720.26,377.16 723.02,376.51 725.31,376.91 727.11,378.37 728.44,380.89" speed="5.56" />
    </edge>
    <edge function="internal" id=":1326631454_8">
        <lane allow="delivery bicycle pedestrian" id=":1326631454_8_0" index="0" length="4.67" shape="720.26,377.16 721.66,377.47 722.33,378.07 722.25,378.96 721.43,380.14" speed="3.65" />
    </edge>
    <edge function="internal" id=":1326631482_0">
        <lane disallow="tram rail_urban rail rail_electric ship" id=":1326631482_0_0" index="0" length="9.42" shape="687.50,396.43 684.05,387.66" speed="13.89" />
    </edge>
    <edge function="internal" id=":1326631482_1">
        <lane allow="delivery bicycle pedestrian" id=":1326631482_1_0" index="0" length="5.04" shape="687.50,396.43 686.87,393.75 687.25,391.49" speed="6.92" />
    </edge>
    <edge function="internal" id=":1326631482_2">
        <lane disallow="tram rail_urban rail rail_electric ship" id=":1326631482_2_0" index="0" length="2.34" shape="687.50,396.43 687.80,395.02 688.40,394.35" speed="3.65" />
    </edge>
    <edge function="internal" id=":1326631482_9">
        <lane allow="delivery bicycle pedestrian" id=":1326631482_9_0" index="0" length="5.13" shape="687.25,391.49 688.65,389.64 691.07,388.20" speed="6.92" />
    </edge>
    <edge function="internal" id=":1326631482_10">
        <lane disallow="tram rail_urban rail rail_electric ship" id=":1326631482_10_0" index="0" length="2.34" shape="688.40,394.35 689.29,394.43 690.47,395.25" speed="3.65" />
    </edge>
    <edge function="internal" id=":1326631482_3">
        <lane disallow="tram rail_urban rail rail_electric ship" id=":1326631482_3_0" index="0" length="5.10" shape="692.31,391.15 691.08,391.87 690.37,392.80 690.16,393.92 690.47,395.25" speed="5.11" />
    </edge>
    <edge function="internal" id=":1326631482_4">
        <lane disallow="tram rail_urban rail rail_electric ship" id=":1326631482_4_0" index="0" length="10.29" shape="692.31,391.15 689.57,391.87 687.28,391.52 685.44,390.12 684.05,387.66" speed="6.84" />
    </edge>
    <edge function="internal" id=":1326631482_5">
        <lane allow="delivery bicycle pedestrian" id=":1326631482_5_0" index="0" length="4.67" shape="692.31,391.15 690.89,390.88 690.21,390.30 690.27,389.40 691.07,388.20" speed="3.65" />
    </edge>
    <edge function="internal" id=":1326631482_6">
        <lane allow="delivery bicycle pedestrian" id=":1326631482_6_0" index="0" length="5.03" shape="687.03,386.49 687.71,387.70 688.61,388.38 689.73,388.55 691.07,388.20" speed="5.01" />
    </edge>
    <edge function="internal" id=":1326631482_7">
        <lane disallow="tram rail_urban rail rail_electric ship" id=":1326631482_7_0" index="0" length="9.41" shape="687.03,386.49 690.47,395.25" speed="13.89" />
    </edge>
    <edge function="internal" id=":1326631482_8">
        <lane disallow="tram rail_urban rail rail_electric ship" id=":1326631482_8_0" index="0" length="2.34" shape="687.03,386.49 686.72,387.90 686.12,388.57" speed="3.65" />
    </edge>
    <edge function="internal" id=":1326631482_11">
        <lane disallow="tram rail_urban rail rail_electric ship" id=":1326631482_11_0" index="0" length="2.34" shape="686.12,388.57 685.23,388.49 684.05,387.66" speed="3.65" />
    </edge>
    <edge function="internal" id=":1326631495_0">
        <lane allow="delivery bicycle pedestrian" id=":1326631495_0_0" index="0" length="4.67" shape="881.74,316.76 883.14,317.12 883.78,317.74 883.67,318.63 882.80,319.78" speed="3.65" />
    </edge>
    <edge function="internal" id=":1326631557_0">
        <lane allow="delivery bicycle pedestrian" id=":1326631557_0_0" index="0" length="4.67" shape="740.95,416.23 740.59,417.62 739.97,418.27 739.09,418.16 737.93,417.29" speed="3.65" />
    </edge>
    <edge function="internal" id=":1344355525_0">
        <lane allow="delivery bicycle pedestrian" id=":1344355525_0_0" index="0" length="4.67" shape="780.53,348.20 780.83,346.79 781.42,346.12 782.31,346.19 783.50,347.01" speed="3.65" />
    </edge>
    <edge function="internal" id=":1344355527_0">
        <lane allow="delivery bicycle pedestrian" id=":1344355527_0_0" index="0" length="9.34" shape="789.36,353.68 780.62,356.96" speed="5.56" />
    </edge>
    <edge function="internal" id=":1344355527_1">
        <lane allow="delivery bicycle pedestrian" id=":1344355527_1_0" index="0" length="10.13" shape="789.36,353.68 786.68,354.25 784.43,353.81 782.62,352.38 781.23,349.95" speed="5.56" />
    </edge>
    <edge function="internal" id=":1344355527_2">
        <lane allow="delivery bicycle pedestrian" id=":1344355527_2_0" index="0" length="4.67" shape="789.36,353.68 787.96,353.35 787.31,352.73 787.41,351.84 788.26,350.68" speed="3.65" />
    </edge>
    <edge function="internal" id=":1344355527_3">
        <lane allow="delivery bicycle pedestrian" id=":1344355527_3_0" index="0" length="5.08" shape="784.20,348.77 784.90,350.00 785.81,350.73 786.93,350.95 788.26,350.68" speed="5.12" />
    </edge>
    <edge function="internal" id=":1344355527_4">
        <lane allow="delivery bicycle pedestrian" id=":1344355527_4_0" index="0" length="10.23" shape="784.20,348.77 784.87,351.50 784.49,353.77 783.07,355.59 780.62,356.96" speed="5.56" />
    </edge>
    <edge function="internal" id=":1344355527_5">
        <lane allow="delivery bicycle pedestrian" id=":1344355527_5_0" index="0" length="4.67" shape="784.20,348.77 783.91,350.18 783.31,350.85 782.42,350.77 781.23,349.95" speed="3.65" />
    </edge>
    <edge function="internal" id=":1344355527_6">
        <lane allow="delivery bicycle pedestrian" id=":1344355527_6_0" index="0" length="5.02" shape="779.47,353.97 780.68,353.30 781.37,352.41 781.56,351.29 781.23,349.95" speed="5.02" />
    </edge>
    <edge function="internal" id=":1344355527_7">
        <lane allow="delivery bicycle pedestrian" id=":1344355527_7_0" index="0" length="9.38" shape="779.47,353.97 788.26,350.68" speed="5.56" />
    </edge>
    <edge function="internal" id=":1344355527_8">
        <lane allow="delivery bicycle pedestrian" id=":1344355527_8_0" index="0" length="4.67" shape="779.47,353.97 780.88,354.29 781.54,354.89 781.45,355.78 780.62,356.96" speed="3.65" />
    </edge>
    <edge function="internal" id=":1660679578_0">
        <lane allow="delivery bicycle pedestrian" id=":1660679578_0_0" index="0" length="5.01" shape="537.62,580.06 536.95,578.86 536.05,578.16 534.94,577.98 533.60,578.30" speed="5.03" />
    </edge>
    <edge function="internal" id=":1660679578_1">
        <lane disallow="tram rail_urban rail rail_electric ship" id=":1660679578_1_0" index="0" length="9.40" shape="537.62,580.06 534.24,571.28" speed="8.33" />
    </edge>
    <edge function="internal" id=":1660679578_2">
        <lane disallow="tram rail_urban rail rail_electric ship" id=":1660679578_2_0" index="0" length="2.34" shape="537.62,580.06 537.93,578.65 538.54,577.99" speed="3.65" />
    </edge>
    <edge function="internal" id=":1660679578_9">
        <lane disallow="tram rail_urban rail rail_electric ship" id=":1660679578_9_0" index="0" length="2.34" shape="538.54,577.99 539.43,578.08 540.61,578.91" speed="3.65" />
    </edge>
    <edge function="internal" id=":1660679578_3">
        <lane disallow="tram rail_urban rail rail_electric ship" id=":1660679578_3_0" index="0" length="9.40" shape="537.23,570.13 540.61,578.91" speed="8.33" />
    </edge>
    <edge function="internal" id=":1660679578_4">
        <lane allow="delivery bicycle pedestrian" id=":1660679578_4_0" index="0" length="5.06" shape="537.23,570.13 537.84,572.83 537.44,575.09" speed="6.89" />
    </edge>
    <edge function="internal" id=":1660679578_5">
        <lane disallow="tram rail_urban rail rail_electric ship" id=":1660679578_5_0" index="0" length="2.34" shape="537.23,570.13 536.91,571.54 536.31,572.20" speed="3.65" />
    </edge>
    <edge function="internal" id=":1660679578_10">
        <lane allow="delivery bicycle pedestrian" id=":1660679578_10_0" index="0" length="5.10" shape="537.44,575.09 536.03,576.91 533.60,578.30" speed="6.89" />
    </edge>
    <edge function="internal" id=":1660679578_11">
        <lane disallow="tram rail_urban rail rail_electric ship" id=":1660679578_11_0" index="0" length="2.34" shape="536.31,572.20 535.42,572.12 534.24,571.28" speed="3.65" />
    </edge>
    <edge function="internal" id=":1660679578_6">
        <lane disallow="tram rail_urban rail rail_electric ship" id=":1660679578_6_0" index="0" length="5.05" shape="532.42,575.33 533.63,574.64 534.34,573.73 534.54,572.62 534.24,571.28" speed="5.08" />
    </edge>
    <edge function="internal" id=":1660679578_7">
        <lane disallow="tram rail_urban rail rail_electric ship" id=":1660679578_7_0" index="0" length="10.22" shape="532.42,575.33 535.14,574.67 537.42,575.05 539.24,576.46 540.61,578.91" speed="6.85" />
    </edge>
    <edge function="internal" id=":1660679578_8">
        <lane allow="delivery bicycle pedestrian" id=":1660679578_8_0" index="0" length="4.67" shape="532.42,575.33 533.83,575.63 534.49,576.22 534.42,577.11 533.60,578.30" speed="3.65" />
    </edge>
    <edge function="internal" id=":1660679579_0">
        <lane allow="delivery bicycle pedestrian" id=":1660679579_0_0" index="0" length="4.67" shape="498.61,676.92 497.21,676.57 496.56,675.95 496.67,675.06 497.53,673.90" speed="3.65" />
    </edge>
    <edge function="internal" id=":1954396_0">
        <lane disallow="tram rail_urban rail rail_electric ship" id=":1954396_0_0" index="0" length="6.68" shape="427.16,591.16 420.91,593.54" speed="13.89" />
        <lane disallow="tram rail_urban rail rail_electric ship" id=":1954396_0_1" index="1" length="6.68" shape="425.99,588.18 419.76,590.55" speed="13.89" />
    </edge>
    <edge function="internal" id=":1954396_2">
        <lane disallow="tram rail_urban rail rail_electric ship" id=":1954396_2_0" index="0" length="5.39" shape="425.99,588.18 424.47,588.54 423.22,588.39 422.24,587.72 421.53,586.53" speed="5.23" />
    </edge>
    <edge function="internal" id=":1954396_3">
        <lane disallow="tram rail_urban rail rail_electric ship" id=":1954396_3_0" index="0" length="7.79" shape="424.51,585.36 424.65,586.78 423.90,588.12 422.27,589.38 419.76,590.55" speed="6.07" />
    </edge>
    <edge function="internal" id=":1954396_4">
        <lane disallow="tram rail_urban rail rail_electric ship" id=":1954396_4_0" index="0" length="4.67" shape="424.51,585.36 424.20,586.77 423.61,587.43 422.72,587.36 421.53,586.53" speed="3.65" />
    </edge>
    <edge function="internal" id=":1955508_0">
        <lane disallow="tram rail_urban rail rail_electric ship" id=":1955508_0_0" index="0" length="4.67" shape="991.23,1158.37 990.92,1159.78 990.33,1160.45 989.43,1160.37 988.25,1159.55" speed="3.65" />
    </edge>
    <edge function="internal" id=":21457467_0">
        <lane disallow="tram rail_urban rail rail_electric ship" id=":21457467_0_0" index="0" length="9.06" shape="374.21,467.07 372.97,464.91 371.35,463.66 369.33,463.32 366.92,463.89" speed="6.52" />
    </edge>
    <edge function="internal" id=":21457467_1">
        <lane disallow="tram rail_urban rail rail_electric ship" id=":21457467_1_0" index="0" length="2.56" shape="374.21,467.07 374.51,465.66 375.10,464.99 375.32,465.01" speed="3.65" />
    </edge>
    <edge function="internal" id=":21457467_4">
        <lane disallow="tram rail_urban rail rail_electric ship" id=":21457467_4_0" index="0" length="2.11" shape="375.32,465.01 375.99,465.07 377.18,465.89" speed="3.65" />
    </edge>
    <edge function="internal" id=":21457467_2">
        <lane disallow="tram rail_urban rail rail_electric ship" id=":21457467_2_0" index="0" length="9.03" shape="380.35,458.65 378.19,459.86 376.94,461.47 376.60,463.48 377.18,465.89" speed="6.49" />
    </edge>
    <edge function="internal" id=":21457467_3">
        <lane disallow="tram rail_urban rail rail_electric ship" id=":21457467_3_0" index="0" length="14.41" shape="380.35,458.65 366.92,463.89" speed="13.89" />
    </edge>
    <edge function="internal" id=":21457468_0">
        <lane disallow="tram rail_urban rail rail_electric ship" id=":21457468_0_0" index="0" length="8.93" shape="476.35,427.41 475.11,425.33 473.49,424.12 471.48,423.80 469.10,424.35" speed="6.53" />
    </edge>
    <edge function="internal" id=":21457468_1">
        <lane disallow="tram rail_urban rail rail_electric ship" id=":21457468_1_0" index="0" length="11.01" shape="476.35,427.41 472.18,417.23" speed="13.89" />
    </edge>
    <edge function="internal" id=":21457468_2">
        <lane disallow="tram rail_urban rail rail_electric ship" id=":21457468_2_0" index="0" length="2.34" shape="476.35,427.41 476.63,426.00 477.22,425.32" speed="3.65" />
    </edge>
    <edge function="internal" id=":21457468_6">
        <lane disallow="tram rail_urban rail rail_electric ship" id=":21457468_6_0" index="0" length="2.34" shape="477.22,425.32 478.11,425.39 479.31,426.19" speed="3.65" />
    </edge>
    <edge function="internal" id=":21457468_3">
        <lane disallow="tram rail_urban rail rail_electric ship" id=":21457468_3_0" index="0" length="10.98" shape="475.14,416.03 479.31,426.19" speed="13.89" />
    </edge>
    <edge function="internal" id=":21457468_4">
        <lane disallow="tram rail_urban rail rail_electric ship" id=":21457468_4_0" index="0" length="4.01" shape="475.14,416.03 475.55,418.49 475.00,419.89" speed="7.25" />
    </edge>
    <edge function="internal" id=":21457468_5">
        <lane disallow="tram rail_urban rail rail_electric ship" id=":21457468_5_0" index="0" length="2.34" shape="475.14,416.03 474.85,417.44 474.26,418.11" speed="3.65" />
    </edge>
    <edge function="internal" id=":21457468_7">
        <lane disallow="tram rail_urban rail rail_electric ship" id=":21457468_7_0" index="0" length="7.60" shape="475.00,419.89 474.68,420.70 472.53,422.65 469.10,424.35" speed="7.25" />
    </edge>
    <edge function="internal" id=":21457468_8">
        <lane disallow="tram rail_urban rail rail_electric ship" id=":21457468_8_0" index="0" length="2.34" shape="474.26,418.11 473.37,418.04 472.18,417.23" speed="3.65" />
    </edge>
    <edge function="internal" id=":21457470_0">
        <lane disallow="tram rail_urban rail rail_electric ship" id=":21457470_0_0" index="0" length="6.26" shape="431.03,595.65 430.05,593.42 429.10,591.92 428.21,591.14 427.35,591.09" speed="5.56" />
    </edge>
    <edge function="internal" id=":21457470_1">
        <lane disallow="tram rail_urban rail rail_electric ship" id=":21457470_1_0" index="0" length="7.36" shape="434.22,588.48 427.35,591.09" speed="13.89" />
        <lane disallow="tram rail_urban rail rail_electric ship" id=":21457470_1_1" index="1" length="7.36" shape="433.08,585.49 426.18,588.11" speed="13.89" />
    </edge>
    <edge function="internal" id=":2269137859_0">
        <lane allow="delivery bicycle pedestrian" id=":2269137859_0_0" index="0" length="5.02" shape="416.50,277.51 415.84,276.30 414.95,275.60 413.83,275.41 412.49,275.73" speed="5.02" />
    </edge>
    <edge function="internal" id=":2269137859_1">
        <lane disallow="tram rail_urban rail rail_electric ship" id=":2269137859_1_0" index="0" length="9.40" shape="416.50,277.51 413.20,268.71" speed="13.89" />
    </edge>
    <edge function="internal" id=":2269137859_2">
        <lane disallow="tram rail_urban rail rail_electric ship" id=":2269137859_2_0" index="0" length="2.34" shape="416.50,277.51 416.83,276.11 417.44,275.45" speed="3.65" />
    </edge>
    <edge function="internal" id=":2269137859_9">
        <lane disallow="tram rail_urban rail rail_electric ship" id=":2269137859_9_0" index="0" length="2.34" shape="417.44,275.45 418.33,275.55 419.50,276.39" speed="3.65" />
    </edge>
    <edge function="internal" id=":2269137859_3">
        <lane disallow="tram rail_urban rail rail_electric ship" id=":2269137859_3_0" index="0" length="9.40" shape="416.19,267.59 419.50,276.39" speed="13.89" />
    </edge>
    <edge function="internal" id=":2269137859_4">
        <lane allow="delivery bicycle pedestrian" id=":2269137859_4_0" index="0" length="5.05" shape="416.19,267.59 416.78,270.28 416.36,272.54" speed="6.90" />
    </edge>
    <edge function="internal" id=":2269137859_5">
        <lane disallow="tram rail_urban rail rail_electric ship" id=":2269137859_5_0" index="0" length="2.34" shape="416.19,267.59 415.87,268.99 415.26,269.65" speed="3.65" />
    </edge>
    <edge function="internal" id=":2269137859_10">
        <lane allow="delivery bicycle pedestrian" id=":2269137859_10_0" index="0" length="5.12" shape="416.36,272.54 414.93,274.35 412.49,275.73" speed="6.90" />
    </edge>
    <edge function="internal" id=":2269137859_11">
        <lane disallow="tram rail_urban rail rail_electric ship" id=":2269137859_11_0" index="0" length="2.34" shape="415.26,269.65 414.37,269.55 413.20,268.71" speed="3.65" />
    </edge>
    <edge function="internal" id=":2269137859_6">
        <lane disallow="tram rail_urban rail rail_electric ship" id=":2269137859_6_0" index="0" length="5.07" shape="411.32,272.76 412.55,272.07 413.27,271.16 413.49,270.04 413.20,268.71" speed="5.10" />
    </edge>
    <edge function="internal" id=":2269137859_7">
        <lane disallow="tram rail_urban rail rail_electric ship" id=":2269137859_7_0" index="0" length="10.25" shape="411.32,272.76 414.06,272.11 416.33,272.49 418.15,273.92 419.50,276.39" speed="6.85" />
    </edge>
    <edge function="internal" id=":2269137859_8">
        <lane allow="delivery bicycle pedestrian" id=":2269137859_8_0" index="0" length="4.67" shape="411.32,272.76 412.73,273.06 413.39,273.66 413.32,274.55 412.49,275.73" speed="3.65" />
    </edge>
    <edge function="internal" id=":2269137870_0">
        <lane allow="delivery bicycle pedestrian" id=":2269137870_0_0" index="0" length="5.01" shape="357.55,335.97 355.70,331.31" speed="5.56" />
    </edge>
    <edge function="internal" id=":2269137870_1">
        <lane allow="delivery bicycle pedestrian" id=":2269137870_1_0" index="0" length="2.34" shape="357.55,335.97 357.85,334.56 358.45,333.89" speed="3.65" />
    </edge>
    <edge function="internal" id=":2269137870_4">
        <lane allow="delivery bicycle pedestrian" id=":2269137870_4_0" index="0" length="2.34" shape="358.45,333.89 359.34,333.96 360.53,334.78" speed="3.65" />
    </edge>
    <edge function="internal" id=":2269137870_2">
        <lane allow="delivery bicycle pedestrian" id=":2269137870_2_0" index="0" length="5.00" shape="358.68,330.13 360.53,334.78" speed="5.56" />
    </edge>
    <edge function="internal" id=":2269137870_3">
        <lane allow="delivery bicycle pedestrian" id=":2269137870_3_0" index="0" length="2.34" shape="358.68,330.13 358.38,331.54 357.78,332.21" speed="3.65" />
    </edge>
    <edge function="internal" id=":2269137870_5">
        <lane allow="delivery bicycle pedestrian" id=":2269137870_5_0" index="0" length="2.34" shape="357.78,332.21 356.89,332.13 355.70,331.31" speed="3.65" />
    </edge>
    <edge function="internal" id=":2269137873_0">
        <lane disallow="tram rail_urban rail rail_electric ship" id=":2269137873_0_0" index="0" length="5.09" shape="362.81,340.52 363.51,341.76 364.42,342.48 365.54,342.70 366.87,342.40" speed="5.09" />
    </edge>
    <edge function="internal" id=":2269137873_1">
        <lane allow="delivery bicycle pedestrian" id=":2269137873_1_0" index="0" length="4.67" shape="362.81,340.52 362.51,341.93 361.91,342.60 361.02,342.52 359.84,341.70" speed="3.65" />
    </edge>
    <edge function="internal" id=":2269137873_2">
        <lane allow="delivery bicycle pedestrian" id=":2269137873_2_0" index="0" length="5.03" shape="358.04,345.70 359.26,345.05 359.97,344.16 360.16,343.05 359.84,341.70" speed="5.01" />
    </edge>
    <edge function="internal" id=":2269137873_3">
        <lane disallow="tram rail_urban rail rail_electric ship" id=":2269137873_3_0" index="0" length="9.43" shape="358.04,345.70 366.87,342.40" speed="13.89" />
    </edge>
    <edge function="internal" id=":2349278105_0">
        <lane allow="bicycle pedestrian" id=":2349278105_0_0" index="0" length="5.00" shape="618.38,196.73 620.21,201.38" speed="2.78" width="2.00" />
    </edge>
    <edge function="internal" id=":2349278108_0">
        <lane disallow="tram rail_urban rail rail_electric ship" id=":2349278108_0_0" index="0" length="4.98" shape="671.28,224.11 675.94,222.33" speed="13.89" />
        <lane disallow="tram rail_urban rail rail_electric ship" id=":2349278108_0_1" index="1" length="4.98" shape="672.43,227.10 677.07,225.32" speed="13.89" />
    </edge>
    <edge function="internal" id=":2830356233_0">
        <lane disallow="tram rail_urban rail rail_electric ship" id=":2830356233_0_0" index="0" length="5.00" shape="418.41,282.61 416.66,277.93" speed="13.89" />
    </edge>
    <edge function="internal" id=":2830356233_1">
        <lane disallow="tram rail_urban rail rail_electric ship" id=":2830356233_1_0" index="0" length="2.34" shape="418.41,282.61 418.74,281.21 419.35,280.55" speed="3.65" />
    </edge>