<?xml version="1.0" encoding="UTF-8"?>

<!-- generated on Mon Jan 13 15:37:26 2020 by Eclipse SUMO polyconvert Version 1.2.0
<configuration xmlns:xsi="http://www.w3.org/2001/XMLSchema-instance" xsi:noNamespaceSchemaLocation="http://sumo.dlr.de/xsd/polyconvertConfiguration.xsd">

    <input>
        <net-file value="osm.net.xml"/>
        <osm-files value="osm_bbox.osm.xml"/>
        <osm.keep-full-type value="true"/>
        <type-file value="/usr/share/sumo/data/typemap/osmPolyconvert.typ.xml"/>
    </input>

    <output>
        <output-file value="osm.poly.xml"/>
    </output>

    <processing>
        <poi-layer-offset value="5"/>
    </processing>

    <report>
        <verbose value="true"/>
    </report>

</configuration>
-->

<additional xmlns:xsi="http://www.w3.org/2001/XMLSchema-instance" xsi:noNamespaceSchemaLocation="http://sumo.dlr.de/xsd/additional_file.xsd">
    <location netOffset="-690379.25,-5335653.30" convBoundary="-450.86,-502.96,1817.47,1605.33" origBoundary="11.548225,48.117927,11.589900,48.166202" projParameter="+proj=utm +zone=32 +ellps=WGS84 +datum=WGS84 +units=m +no_defs"/>

    <poly id="10053349" type="amenity.university" color="237,199,199" fill="1" layer="-1.00" shape="634.435778,363.605540 638.086075,372.906499 642.010828,382.906448 646.565947,394.540742 657.098279,421.372699 663.307543,437.201181 654.745281,440.542172 648.551723,442.960974 640.736527,446.004291 638.096015,447.039800 624.570327,452.306702 621.969220,445.699929 619.197400,438.631285 635.363630,432.328859 625.730870,407.763338 608.621940,414.423715 598.412564,388.392599 588.353713,362.755948 605.462764,356.095507 595.829349,331.541159 579.202909,338.017483 576.444362,330.993815 573.452612,323.372680 590.079456,316.885226 602.805920,311.925312 609.625431,309.271464 612.658309,308.082154 619.327163,325.094159 630.106356,352.568481 634.435778,363.605540"/>
    <poly id="10053349#1" type="building.university" color="255,230,230" fill="1" layer="-1.00" shape="634.435778,363.605540 638.086075,372.906499 642.010828,382.906448 646.565947,394.540742 657.098279,421.372699 663.307543,437.201181 654.745281,440.542172 648.551723,442.960974 640.736527,446.004291 638.096015,447.039800 624.570327,452.306702 621.969220,445.699929 619.197400,438.631285 635.363630,432.328859 625.730870,407.763338 608.621940,414.423715 598.412564,388.392599 588.353713,362.755948 605.462764,356.095507 595.829349,331.541159 579.202909,338.017483 576.444362,330.993815 573.452612,323.372680 590.079456,316.885226 602.805920,311.925312 609.625431,309.271464 612.658309,308.082154 619.327163,325.094159 630.106356,352.568481 634.435778,363.605540"/>
    <poly id="116940727" type="building.yes" color="255,230,230" fill="1" layer="-1.00" shape="435.964972,594.318855 431.227787,596.163429 411.885272,603.294976 416.367078,615.794458 435.897672,608.157409 440.664968,606.302718 435.964972,594.318855"/>
    <poly id="116940774" type="building.yes" color="255,230,230" fill="1" layer="-1.00" shape="506.867299,593.170008 519.933196,625.515819 525.283174,623.380251 521.019638,612.823891 525.358973,611.077365 521.143403,600.644993 517.325005,602.175271 512.738245,590.818176 506.867299,593.170008"/>
    <poly id="116940811" type="building.yes" color="255,230,230" fill="1" layer="-1.00" shape="509.282660,579.921646 514.282409,578.019145 516.371449,583.462784 521.891747,597.855090 534.153866,593.179960 528.558094,578.595977 521.859937,561.126921 504.597636,567.715699 509.282660,579.921646"/>
    <poly id="116940859" type="building.yes" color="255,230,230" fill="1" layer="-1.00" shape="495.280837,571.365500 459.858811,585.114106 464.489221,596.951029 499.903752,583.202205 495.280837,571.365500"/>
    <poly id="116940882" type="building.yes" color="255,230,230" fill="1" layer="-1.00" shape="448.778077,589.417163 435.964972,594.318855 440.664968,606.302718 447.116677,603.725432 453.225937,601.370369 448.778077,589.417163"/>
    <poly id="116940922" type="building.yes" color="255,230,230" fill="1" layer="-1.00" shape="453.225937,601.370369 464.489221,596.951029 459.858811,585.114106 448.778077,589.417163 453.225937,601.370369"/>
    <poly id="119747961" type="building.yes" color="255,230,230" fill="1" layer="-1.00" shape="782.309478,523.133674 802.520687,515.431576 810.937597,537.364416 791.058511,544.932947 789.010985,539.590716 793.641628,537.820748 792.203229,534.078788 787.233456,535.970931 782.309478,523.133674"/>
    <poly id="119747961#1" type="tourism.museum" color="207,245,201" fill="1" layer="-2.00" shape="782.309478,523.133674 802.520687,515.431576 810.937597,537.364416 791.058511,544.932947 789.010985,539.590716 793.641628,537.820748 792.203229,534.078788 787.233456,535.970931 782.309478,523.133674"/>
    <poly id="119747974" type="leisure.park" color="207,245,201" fill="1" layer="-2.00" shape="772.981546,588.565807 779.825047,588.082564 948.970975,522.355820 950.763354,516.852753 911.465764,417.183022 906.322180,414.251655 730.071013,482.868718 772.981546,588.565807"/>
    <poly id="119748207" type="leisure.park" color="207,245,201" fill="1" layer="-2.00" shape="729.787217,216.712414 725.745013,218.246216 674.295436,237.833199 644.716978,249.094692 646.476529,253.704039 731.554521,221.310924 729.787217,216.712414"/>
    <poly id="119748208" type="leisure.park" color="207,245,201" fill="1" layer="-2.00" shape="736.199322,213.778064 783.852918,195.499959 806.457866,186.831992 808.184584,191.306784 737.926084,218.252833 736.199322,213.778064"/>
    <poly id="144291476" type="amenity.university" color="237,199,199" fill="1" layer="-1.00" shape="582.468220,663.552676 559.698700,605.659811 559.231670,605.822230 540.445370,555.272196 531.955715,539.056175 496.200386,446.817817 484.930557,417.747492 471.562139,383.288893 447.355838,320.631238 586.614818,267.692469 624.049751,253.266317 666.739490,362.570940 708.583606,469.722657 714.724369,489.153766 758.149063,596.848361 582.468220,663.552676"/>
    <poly id="144291498" type="amenity.parking" color="184,184,179" fill="1" layer="-1.00" shape="735.029375,377.970928 750.516851,420.712121 732.980141,427.024051 717.492559,384.282907 735.029375,377.970928"/>
    <poly id="144291498#1" type="leisure.park" color="207,245,201" fill="1" layer="-2.00" shape="735.029375,377.970928 750.516851,420.712121 732.980141,427.024051 717.492559,384.282907 735.029375,377.970928"/>
    <poly id="144291499" type="leisure.park" color="207,245,201" fill="1" layer="-2.00" shape="871.870373,327.038760 847.604464,264.722088 818.853299,190.895838 648.411897,256.839495 659.657502,285.731337 676.492016,328.962326 700.081060,389.519898 701.801833,393.949955 728.832110,463.356670 754.546126,453.412857 817.915509,428.895908 865.482526,410.493283 899.276103,397.415779 883.478397,356.855584 871.870373,327.038760"/>
    <poly id="180313799" type="landuse.grass" color="194,194,130" fill="1" layer="-3.00" shape="809.243793,163.415742 781.002469,89.228518 738.529731,105.298886 725.887116,72.087795 669.915766,93.259427 659.930956,97.042454 664.551054,109.190714 630.970269,121.887362 633.448450,128.389885 602.793719,139.982826 637.480140,230.138876 649.958418,225.037249 660.994998,220.521662 651.386749,194.543932 670.008379,187.199868 680.168058,213.385203 726.461899,195.684254 771.888467,178.321828 777.189486,175.884426 782.449979,173.545808 809.243793,163.415742"/>
    <poly id="19183732" type="amenity.canteen" color="237,199,199" fill="1" layer="-1.00" shape="521.651169,247.176171 554.437001,234.174240 555.859643,237.726455 601.579091,220.706292 600.423452,216.740193 607.089841,213.769691 594.711561,180.656752 586.973784,183.825132 585.207795,178.514652 506.274427,208.633957 521.651169,247.176171"/>
    <poly id="19183732#1" type="building.yes" color="255,230,230" fill="1" layer="-1.00" shape="521.651169,247.176171 554.437001,234.174240 555.859643,237.726455 601.579091,220.706292 600.423452,216.740193 607.089841,213.769691 594.711561,180.656752 586.973784,183.825132 585.207795,178.514652 506.274427,208.633957 521.651169,247.176171"/>
    <poly id="217617656" type="building.yes" color="255,230,230" fill="1" layer="-1.00" shape="461.625742,297.086413 449.454555,301.698010 441.091919,304.856844 434.266629,286.938650 430.378239,276.728690 444.049899,271.555198 447.329017,280.164935 449.341637,285.450222 456.203865,282.853250 456.840270,284.532272 461.625742,297.086413"/>
    <poly id="217618264" type="amenity.parking" color="184,184,179" fill="1" layer="-1.00" shape="369.346260,334.973018 369.232700,329.673238 420.039942,310.306963 419.678991,315.991448 369.346260,334.973018"/>
    <poly id="223983998" type="building.yes" color="255,230,230" fill="1" layer="-1.00" shape="433.503127,430.060795 446.933092,424.756877 443.059380,415.003557 440.637170,415.968559 439.868004,414.029208 438.751348,414.470358 428.859857,418.379248 433.503127,430.060795"/>
    <poly id="223983999" type="building.residential" color="255,230,230" fill="1" layer="-1.00" shape="415.236974,437.272790 425.950944,433.035295 421.011971,420.620694 410.298354,424.847085 415.236974,437.272790"/>
    <poly id="223984007" type="building.yes" color="255,230,230" fill="1" layer="-1.00" shape="402.312779,442.371136 412.649307,438.287912 415.236974,437.272790 410.298354,424.847085 408.416331,420.111343 405.828658,421.126469 402.893682,422.285770 395.492106,425.209705 402.312779,442.371136"/>
    <poly id="22744227" type="amenity.university" color="237,199,199" fill="1" layer="-1.00" shape="737.758037,558.938783 711.896113,491.351203 687.424688,500.658031 713.286841,568.245494 737.758037,558.938783"/>
    <poly id="22744227#1" type="building.university" color="255,230,230" fill="1" layer="-1.00" shape="737.758037,558.938783 711.896113,491.351203 687.424688,500.658031 713.286841,568.245494 737.758037,558.938783"/>
    <poly id="22744228" type="amenity.university" color="237,199,199" fill="1" layer="-1.00" shape="690.882652,613.057937 679.956397,586.668881 695.862371,580.124299 706.030821,575.946979 716.957356,602.324974 690.882652,613.057937"/>
    <poly id="22744228#1" type="building.university" color="255,230,230" fill="1" layer="-1.00" shape="690.882652,613.057937 679.956397,586.668881 695.862371,580.124299 706.030821,575.946979 716.957356,602.324974 690.882652,613.057937"/>
    <poly id="22744229" type="amenity.university" color="237,199,199" fill="1" layer="-1.00" shape="647.650191,629.481641 637.189710,603.186121 646.326591,599.575041 666.245420,591.695828 676.705426,618.002517 647.650191,629.481641"/>
    <poly id="22744229#1" type="building.university" color="255,230,230" fill="1" layer="-1.00" shape="647.650191,629.481641 637.189710,603.186121 646.326591,599.575041 666.245420,591.695828 676.705426,618.002517 647.650191,629.481641"/>
    <poly id="22744230" type="amenity.university" color="237,199,199" fill="1" layer="-1.00" shape="604.887565,644.552846 602.890499,639.479400 596.473086,623.198978 594.997774,619.444715 622.087765,608.845384 631.977092,633.964678 604.887565,644.552846"/>
    <poly id="22744230#1" type="building.yes" color="255,230,230" fill="1" layer="-1.00" shape="604.887565,644.552846 602.890499,639.479400 596.473086,623.198978 594.997774,619.444715 622.087765,608.845384 631.977092,633.964678 604.887565,644.552846"/>
    <poly id="22744230#2" type="historic.yes" color="128,255,128" fill="1" layer="-1.00" shape="604.887565,644.552846 602.890499,639.479400 596.473086,623.198978 594.997774,619.444715 622.087765,608.845384 631.977092,633.964678 604.887565,644.552846"/>
    <poly id="22744231" type="amenity.university" color="237,199,199" fill="1" layer="-1.00" shape="581.358110,660.678448 559.698700,605.659811 565.334287,603.444810 572.930959,600.471988 583.822407,628.139147 596.473086,623.198978 602.890499,639.479400 589.062613,644.892027 593.420472,655.963398 581.358110,660.678448"/>
    <poly id="22744231#1" type="building.yes" color="255,230,230" fill="1" layer="-1.00" shape="581.358110,660.678448 559.698700,605.659811 565.334287,603.444810 572.930959,600.471988 583.822407,628.139147 596.473086,623.198978 602.890499,639.479400 589.062613,644.892027 593.420472,655.963398 581.358110,660.678448"/>
    <poly id="22744231#2" type="historic.building" color="128,255,128" fill="1" layer="-1.00" shape="581.358110,660.678448 559.698700,605.659811 565.334287,603.444810 572.930959,600.471988 583.822407,628.139147 596.473086,623.198978 602.890499,639.479400 589.062613,644.892027 593.420472,655.963398 581.358110,660.678448"/>
    <poly id="22744232" type="amenity.university" color="237,199,199" fill="1" layer="-1.00" shape="557.255009,582.302478 556.923328,582.424913 556.591275,582.558462 556.361895,583.407508 555.845814,584.146843 555.121855,584.645589 554.265873,584.861774 553.014590,584.653093 552.286481,584.161481 551.766964,583.443189 551.514039,582.322136 551.676856,581.459741 552.126746,580.695942 552.997576,580.035211 553.853559,579.819025 554.729268,579.903903 555.774941,580.472877 556.551344,580.187278 553.740371,577.412016 547.236845,561.251175 547.974290,556.335834 580.912811,543.394879 590.154223,566.745646 590.998677,566.428947 594.377235,565.139922 597.558476,573.323714 593.387527,574.931175 595.124670,579.317243 561.220274,592.648637 557.255009,582.302478"/>
    <poly id="22744232#1" type="building.yes" color="255,230,230" fill="1" layer="-1.00" shape="557.255009,582.302478 556.923328,582.424913 556.591275,582.558462 556.361895,583.407508 555.845814,584.146843 555.121855,584.645589 554.265873,584.861774 553.014590,584.653093 552.286481,584.161481 551.766964,583.443189 551.514039,582.322136 551.676856,581.459741 552.126746,580.695942 552.997576,580.035211 553.853559,579.819025 554.729268,579.903903 555.774941,580.472877 556.551344,580.187278 553.740371,577.412016 547.236845,561.251175 547.974290,556.335834 580.912811,543.394879 590.154223,566.745646 590.998677,566.428947 594.377235,565.139922 597.558476,573.323714 593.387527,574.931175 595.124670,579.317243 561.220274,592.648637 557.255009,582.302478"/>
    <poly id="22744232#2" type="historic.building" color="128,255,128" fill="1" layer="-1.00" shape="557.255009,582.302478 556.923328,582.424913 556.591275,582.558462 556.361895,583.407508 555.845814,584.146843 555.121855,584.645589 554.265873,584.861774 553.014590,584.653093 552.286481,584.161481 551.766964,583.443189 551.514039,582.322136 551.676856,581.459741 552.126746,580.695942 552.997576,580.035211 553.853559,579.819025 554.729268,579.903903 555.774941,580.472877 556.551344,580.187278 553.740371,577.412016 547.236845,561.251175 547.974290,556.335834 580.912811,543.394879 590.154223,566.745646 590.998677,566.428947 594.377235,565.139922 597.558476,573.323714 593.387527,574.931175 595.124670,579.317243 561.220274,592.648637 557.255009,582.302478"/>
    <poly id="235972235" type="building.yes" color="255,230,230" fill="1" layer="-1.00" shape="500.095150,651.277787 512.663490,645.900775 508.575855,635.650701 500.517318,615.443739 495.453738,602.757864 482.747717,607.796540 500.095150,651.277787"/>
    <poly id="254151449" type="building.yes" color="255,230,230" fill="1" layer="-1.00" shape="391.144789,557.497868 385.274170,542.660106 396.193917,538.273670 402.181301,553.404618 391.144789,557.497868"/>
    <poly id="254151451" type="building.yes" color="255,230,230" fill="1" layer="-1.00" shape="395.552567,568.648608 406.664934,564.735915 414.258615,583.936987 399.026759,589.926272 394.622638,577.774306 398.709858,576.219541 395.552567,568.648608"/>
    <poly id="259759830" type="landuse.residential" color="235,235,227" fill="1" layer="-3.00" shape="729.410647,519.996615 780.811252,645.426008 843.904232,799.385032 842.472716,807.014153 835.427204,809.760273 832.814263,803.075097 735.945801,840.746367 634.975612,880.006680 630.336741,881.809861 647.244777,925.009985 640.652391,927.571204 638.773952,928.309510 640.406437,932.480710 668.700067,1004.777817 672.207417,1003.415274 676.288110,1001.827122 693.023204,1044.609987 800.131305,1002.952611 896.137209,965.631978 893.187928,958.101051 900.700682,955.181502 906.056466,954.648652 952.323966,1066.812941 997.052028,1193.100873 1002.313796,1236.502043 1007.594629,1297.561027 1018.204589,1304.180321 1023.875888,1310.000059 1031.885980,1374.466078 952.520996,1392.514413 879.043534,1416.835690 784.733657,1443.509596 675.864645,1485.530720 652.219889,1498.736972 589.422655,1514.295419 456.818730,1542.242979 227.450657,1584.522391 100.016715,1605.329512 65.193502,1442.719279 55.770671,1391.514894 8.636036,1349.445905 -113.912508,1239.701449 -204.025485,1157.563341 -294.748287,1078.911219 -450.863043,944.794256 -275.712981,734.850623 -152.830114,594.690061 -151.627298,592.104354 -133.632619,559.002563 -115.633500,510.113202 -73.694502,313.288603 -53.692858,225.747624 -35.513184,193.397661 4.428656,190.176973 291.866519,86.503531 340.824026,67.953723 360.319498,111.194460 413.342050,241.936478 592.400858,170.477115 729.410647,519.996615"/>
    <poly id="259759831" type="landuse.residential" color="235,235,227" fill="1" layer="-3.00" shape="1007.676831,-189.429805 757.052119,-104.442568 728.541725,-128.537707 695.020433,-123.460711 683.164670,-110.939508 679.484710,-104.876378 676.779760,-100.805612 674.968564,-94.958191 673.760591,-88.890346 672.643553,-79.081107 673.420061,-71.789846 674.997141,-66.619165 519.557836,-9.260042 526.623539,8.599509 592.400858,170.477115 729.410647,519.996615 780.811252,645.426008 843.904232,799.385032 842.472716,807.014153 853.988582,836.438498 867.972914,872.187202 865.400588,873.191500 869.159064,882.796682 871.621326,889.087426 874.412283,888.001436 889.013563,925.328506 900.700682,955.181502 906.056466,954.648652 952.323966,1066.812941 997.052028,1193.100873 1002.313796,1236.502043 1007.594629,1297.561027 1018.204589,1304.180321 1023.875888,1310.000059 1031.885980,1374.466078 1109.813081,1378.022108 1395.205433,1408.452501 1477.329480,1407.837436 1678.308859,1395.294649 1752.533662,1374.346388 1817.471908,1352.630593 1722.302616,1004.184891 1666.998117,818.599686 1635.608209,691.630148 1623.264936,608.470135 1545.799427,353.304854 1455.165232,15.688460 1370.362591,-209.511898 1349.888584,-272.916420 1339.764630,-280.565717 1318.185454,-274.591216 1152.379450,-229.601135 1007.676831,-189.429805"/>
    <poly id="264566973" type="amenity.university" color="237,199,199" fill="1" layer="-1.00" shape="566.199465,348.597978 549.162591,355.327702 533.784517,316.618442 550.821482,309.888670 562.490279,339.272854 566.199465,348.597978"/>
    <poly id="264566973#1" type="building.university" color="255,230,230" fill="1" layer="-1.00" shape="566.199465,348.597978 549.162591,355.327702 533.784517,316.618442 550.821482,309.888670 562.490279,339.272854 566.199465,348.597978"/>
    <poly id="278719738" type="building.yes" color="255,230,230" fill="1" layer="-1.00" shape="406.584347,204.805925 404.239851,198.530493 408.258173,197.040176 410.610474,203.304744 406.584347,204.805925"/>
    <poly id="284264273" type="natural.tree_row" color="140,196,107" fill="0" layer="-4.00" shape="555.427013,315.115952 575.577923,367.858879"/>
    <poly id="284264274" type="amenity.parking" color="184,184,179" fill="1" layer="-1.00" shape="565.845544,320.403862 585.023341,313.111504 576.600338,291.100991 557.422482,298.393378 565.845544,320.403862"/>
    <poly id="284264275" type="amenity.parking" color="184,184,179" fill="1" layer="-1.00" shape="647.012296,342.630311 639.107671,322.272539 638.202433,319.950326 622.513356,326.001677 631.323268,348.681637 647.012296,342.630311"/>
    <poly id="31095009" type="amenity.university" color="237,199,199" fill="1" layer="-1.00" shape="620.686205,487.446561 649.461336,476.347316 648.789685,474.611460 638.096015,447.039800 640.736527,446.004291 648.551723,442.960974 659.073537,470.104122 659.313411,470.724072 680.296566,462.646799 682.996949,461.602184 672.152419,433.647125 663.307543,437.201181 657.098279,421.372699 659.172475,420.574175 684.689083,410.745835 708.126274,471.153760 689.028385,478.515113 686.584585,479.457039 665.337094,487.647840 655.871310,491.292415 626.561148,502.585143 620.686205,487.446561"/>
    <poly id="31095009#1" type="building.university" color="255,230,230" fill="1" layer="-1.00" shape="620.686205,487.446561 649.461336,476.347316 648.789685,474.611460 638.096015,447.039800 640.736527,446.004291 648.551723,442.960974 659.073537,470.104122 659.313411,470.724072 680.296566,462.646799 682.996949,461.602184 672.152419,433.647125 663.307543,437.201181 657.098279,421.372699 659.172475,420.574175 684.689083,410.745835 708.126274,471.153760 689.028385,478.515113 686.584585,479.457039 665.337094,487.647840 655.871310,491.292415 626.561148,502.585143 620.686205,487.446561"/>
    <poly id="31095011" type="amenity.university" color="237,199,199" fill="1" layer="-1.00" shape="569.558204,472.075869 572.148006,481.697400 569.897276,483.547034 558.713552,492.708542 537.357859,440.159060 523.260580,405.464583 511.316575,376.071291 528.231699,368.747715 552.698271,430.936054 554.043498,434.352175 569.558204,472.075869"/>
    <poly id="31095011#1" type="building.university" color="255,230,230" fill="1" layer="-1.00" shape="569.558204,472.075869 572.148006,481.697400 569.897276,483.547034 558.713552,492.708542 537.357859,440.159060 523.260580,405.464583 511.316575,376.071291 528.231699,368.747715 552.698271,430.936054 554.043498,434.352175 569.558204,472.075869"/>
    <poly id="31095012" type="amenity.university" color="237,199,199" fill="1" layer="-1.00" shape="538.057721,367.696197 540.488045,370.725757 543.879183,372.630294 547.733940,373.137307 551.503445,372.183963 554.647395,369.896856 556.715113,366.616967 557.400957,362.801383 556.619430,359.003551 554.479150,355.761149 538.057721,367.696197"/>
    <poly id="31095012#1" type="building.university" color="255,230,230" fill="1" layer="-1.00" shape="538.057721,367.696197 540.488045,370.725757 543.879183,372.630294 547.733940,373.137307 551.503445,372.183963 554.647395,369.896856 556.715113,366.616967 557.400957,362.801383 556.619430,359.003551 554.479150,355.761149 538.057721,367.696197"/>
    <poly id="31095013" type="building.yes" color="255,230,230" fill="1" layer="-1.00" shape="549.162591,355.327702 533.784517,316.618442 490.777674,333.596136 499.411005,355.335380 502.482133,354.113914 509.226725,371.094927 549.162591,355.327702"/>
    <poly id="317902066" type="leisure.park" color="207,245,201" fill="1" layer="-2.00" shape="321.364235,27.429011 340.824026,67.953723 360.319498,111.194460 413.342050,241.936478 592.400858,170.477115 526.623539,8.599509 519.557836,-9.260042 488.316656,-91.422906 439.690853,-73.052325 430.934253,-69.706325 443.302205,-36.905718 430.737653,-32.129154 424.198978,-29.643721 425.875859,-25.226361 414.461173,-20.989947 403.687243,-16.988031 401.921445,-21.641997 394.697801,-18.934613 380.341273,-13.561295 372.506850,-34.283416 359.634103,-68.257791 296.717414,-45.567410 321.364235,27.429011"/>
    <poly id="35395706" type="building.yes" color="255,230,230" fill="1" layer="-1.00" shape="535.774665,632.931858 521.891747,597.855090 534.153866,593.179960 537.987095,602.575976 544.396520,618.878305 548.032998,628.145373 535.774665,632.931858"/>
    <poly id="35395714" type="building.yes" color="255,230,230" fill="1" layer="-1.00" shape="418.001973,308.681307 410.616470,289.476083 406.902869,279.828275 350.037955,301.551583 361.129477,330.415364 418.001973,308.681307"/>
    <poly id="35395714#1" type="historic.building" color="128,255,128" fill="1" layer="-1.00" shape="418.001973,308.681307 410.616470,289.476083 406.902869,279.828275 350.037955,301.551583 361.129477,330.415364 418.001973,308.681307"/>
    <poly id="371671521" type="building.yes" color="255,230,230" fill="1" layer="-1.00" shape="417.663488,366.569910 408.478805,370.046259 410.609324,375.591366 419.795113,372.081680 417.663488,366.569910"/>
    <poly id="371671530" type="building.yes" color="255,230,230" fill="1" layer="-1.00" shape="425.979342,369.717951 420.324644,355.098765 414.140032,357.473614 417.663488,366.569910 419.795113,372.081680 425.979342,369.717951"/>
    <poly id="373507643" type="amenity.shelter" color="237,199,199" fill="1" layer="-1.00" shape="477.654448,294.016618 483.163134,292.042058 483.722170,293.584988 478.213486,295.559548 477.654448,294.016618"/>
    <poly id="40526199" type="building.yes" color="255,230,230" fill="1" layer="-1.00" shape="725.212190,645.369561 722.860829,639.316254 756.380913,626.351247 753.185800,618.144634 751.224921,613.105717 730.300934,621.206936 709.324579,629.317603 720.733717,658.626779 722.129233,658.083747 729.106443,655.379702 725.212190,645.369561"/>
    <poly id="40526211" type="building.yes" color="255,230,230" fill="1" layer="-1.00" shape="499.903752,583.202205 509.282660,579.921646 504.597636,567.715699 495.280837,571.365500 499.903752,583.202205"/>
    <poly id="407703107" type="building.apartments" color="255,230,230" fill="0" layer="-1.00" shape="399.026759,589.926272 394.622638,577.774306 382.113345,582.497113"/>
    <poly id="407707814" type="building.apartments" color="255,230,230" fill="1" layer="-1.00" shape="390.600900,625.782476 390.636641,626.273215 416.647142,616.549250 416.367078,615.794458 411.885272,603.294976 404.825235,605.807495 385.852743,612.562062 390.600900,625.782476"/>
    <poly id="42918168" type="building.university" color="255,230,230" fill="1" layer="-1.00" shape="665.058317,464.351662 659.097149,449.121147 671.619252,444.254704 677.572956,459.484984 665.058317,464.351662"/>
    <poly id="42918170" type="building.university" color="255,230,230" fill="1" layer="-1.00" shape="527.835284,478.281587 525.241520,471.675108 535.780385,467.554357 538.373768,474.171954 527.835284,478.281587"/>
    <poly id="43035346" type="amenity.university" color="237,199,199" fill="1" layer="-1.00" shape="713.286841,568.245494 724.126037,596.567648 727.091018,604.310378 751.562091,595.003728 737.758037,558.938783 713.286841,568.245494"/>
    <poly id="43035346#1" type="building.university" color="255,230,230" fill="1" layer="-1.00" shape="713.286841,568.245494 724.126037,596.567648 727.091018,604.310378 751.562091,595.003728 737.758037,558.938783 713.286841,568.245494"/>
    <poly id="439589182" type="amenity.bicycle_parking" color="237,199,199" fill="1" layer="-1.00" shape="636.802056,212.770694 638.241920,212.240243 643.830832,227.480526 642.398780,228.000110 636.802056,212.770694"/>
    <poly id="439592360" type="amenity.parking" color="184,184,179" fill="1" layer="-1.00" shape="649.659942,396.869333 655.122847,410.748055 671.267258,404.433867 665.804756,390.544016 649.659942,396.869333"/>
    <poly id="441900971" type="building.yes" color="255,230,230" fill="1" layer="-1.00" shape="453.225937,601.370369 466.763800,636.313040 460.647132,638.667840 447.116677,603.725432 453.225937,601.370369"/>
    <poly id="450114328" type="building.yes" color="255,230,230" fill="1" layer="-1.00" shape="395.187572,340.174378 397.163958,339.405874 410.168698,334.354696 414.591898,345.494825 416.463151,350.107821 414.624311,354.563628 407.038977,357.859706 405.843039,357.552773 404.553472,354.027291 402.689392,354.777288 400.855432,355.517165 395.187572,340.174378"/>
    <poly id="450146359" type="building.garages" color="255,230,230" fill="1" layer="-1.00" shape="398.490204,402.523625 411.530101,397.084220 417.764116,394.566381 415.817357,389.539200 396.485789,397.438898 398.490204,402.523625"/>
    <poly id="450669422" type="natural.tree_row" color="140,196,107" fill="0" layer="-4.00" shape="640.347459,226.551945 615.570907,163.384930"/>
    <poly id="457324387" type="man_made.courtyard" color="255,230,230" fill="1" layer="-1.00" shape="642.010828,382.906448 638.086075,372.906499 634.435778,363.605540 651.785110,356.886505 655.584894,366.615263 659.341515,376.075556 642.010828,382.906448"/>
    <poly id="457324389" type="amenity.bicycle_parking" color="237,199,199" fill="1" layer="-1.00" shape="666.982398,347.725757 665.247309,348.402099 654.246255,320.664390 655.981721,319.976930 666.982398,347.725757"/>
    <poly id="457363557" type="building.university" color="255,230,230" fill="1" layer="-1.00" shape="669.325348,369.188349 674.922129,383.516607 648.656140,393.709369 646.565947,394.540742 642.010828,382.906448 638.086075,372.906499 634.435778,363.605540 630.106356,352.568481 658.537073,341.546745 663.687626,354.747471 665.431635,354.026922 668.601380,361.887709 671.262351,368.485378 669.325348,369.188349"/>
    <poly id="457363561" type="building.university" color="255,230,230" fill="1" layer="-1.00" shape="643.934950,377.463334 655.105495,373.163623 652.932068,367.572473 650.780205,362.004297 639.609643,366.304017 641.672999,371.624458 643.934950,377.463334"/>
    <poly id="4647135" type="building.yes" color="255,230,230" fill="1" layer="-1.00" shape="724.791313,368.850231 720.478410,357.324098 777.452643,336.153245 832.935030,315.522723 837.062927,326.564342 851.749719,321.103102 842.461235,296.281666 833.158902,271.426410 818.328839,276.938544 822.703358,288.622582 710.653503,330.270887 706.449875,319.037699 691.303248,324.673080 709.901373,374.382876 724.791313,368.850231"/>
    <poly id="4647135#1" type="tourism.museum" color="207,245,201" fill="1" layer="-2.00" shape="724.791313,368.850231 720.478410,357.324098 777.452643,336.153245 832.935030,315.522723 837.062927,326.564342 851.749719,321.103102 842.461235,296.281666 833.158902,271.426410 818.328839,276.938544 822.703358,288.622582 710.653503,330.270887 706.449875,319.037699 691.303248,324.673080 709.901373,374.382876 724.791313,368.850231"/>
    <poly id="50299584" type="amenity.university" color="237,199,199" fill="1" layer="-1.00" shape="580.461189,520.359975 531.955715,539.056175 496.200386,446.817817 513.095637,440.305748 525.241520,471.675108 527.835284,478.281587 539.960532,509.594671 571.563263,497.421243 580.461189,520.359975"/>