<?xml version="1.0" encoding="UTF-8"?>

<!-- generated on Sat Feb  8 02:33:50 2020 by Eclipse SUMO duarouter Version 1.4.0
<configuration xmlns:xsi="http://www.w3.org/2001/XMLSchema-instance" xsi:noNamespaceSchemaLocation="http://sumo.dlr.de/xsd/duarouterConfiguration.xsd">

    <input>
        <net-file value="/home/zhenyuli/Sumo/2020-02-08-02-33-49/osm.net.xml"/>
        <route-files value="/home/zhenyuli/Sumo/2020-02-08-02-33-49/osm.passenger.trips.xml"/>
    </input>

    <output>
        <output-file value="/home/zhenyuli/Sumo/2020-02-08-02-33-49/osm.passenger.trips.xml.tmp"/>
        <write-trips value="true"/>
    </output>

    <time>
        <begin value="0"/>
        <end value="3600.0"/>
    </time>

    <report>
        <no-warnings value="true"/>
        <ignore-errors value="true"/>
        <no-step-log value="true"/>
    </report>

</configuration>
-->

<routes xmlns:xsi="http://www.w3.org/2001/XMLSchema-instance" xsi:noNamespaceSchemaLocation="http://sumo.dlr.de/xsd/routes_file.xsd">
    <vType id="veh_passenger" vClass="passenger"/>
    <trip id="veh0" type="veh_passenger" depart="0.00" departLane="best" departSpeed="max" from="178132681#0" to="-178123202#0"/>
    <trip id="veh1" type="veh_passenger" depart="1.25" departLane="best" departSpeed="max" from="107057108" to="107057067#2"/>
    <trip id="veh2" type="veh_passenger" depart="2.50" departLane="best" departSpeed="max" from="236668165#0" to="236668157#8"/>
    <trip id="veh3" type="veh_passenger" depart="3.76" departLane="best" departSpeed="max" from="769038279#0" to="-178127280#0"/>
    <trip id="veh4" type="veh_passenger" depart="5.01" departLane="best" departSpeed="max" from="177621056#0" to="-178123202#0"/>
    <trip id="veh5" type="veh_passenger" depart="6.26" departLane="best" departSpeed="max" from="107057077#0" to="178122151#10"/>
    <trip id="veh6" type="veh_passenger" depart="7.51" departLane="best" departSpeed="max" from="-177612410#6" to="107057052"/>
    <trip id="veh7" type="veh_passenger" depart="8.76" departLane="best" departSpeed="max" from="107057077#0" to="178329461#1"/>
    <trip id="veh8" type="veh_passenger" depart="10.01" departLane="best" departSpeed="max" from="394727931#0" to="-177618117#3"/>
    <trip id="veh9" type="veh_passenger" depart="11.27" departLane="best" departSpeed="max" from="394727931#0" to="236668157#8"/>
    <trip id="veh10" type="veh_passenger" depart="12.52" departLane="best" departSpeed="max" from="177612401#0" to="107057052"/>
    <trip id="veh11" type="veh_passenger" depart="13.77" departLane="best" departSpeed="max" from="769039656#0" to="177612810"/>
    <trip id="veh12" type="veh_passenger" depart="15.02" departLane="best" from="-177618117#4" to="-178127280#0"/>
    <trip id="veh13" type="veh_passenger" depart="16.27" departLane="best" departSpeed="max" from="394727931#0" to="236668157#8"/>
    <trip id="veh14" type="veh_passenger" depart="17.53" departLane="best" departSpeed="max" from="178123636" to="769039656#8"/>
    <trip id="veh15" type="veh_passenger" depart="18.78" departLane="best" from="177618117#3" to="178132938#1"/>
    <trip id="veh16" type="veh_passenger" depart="20.03" departLane="best" departSpeed="max" from="394727931#0" to="178329461#1"/>
    <trip id="veh18" type="veh_passenger" depart="22.53" departLane="best" departSpeed="max" from="107057077#0" to="177612410#3"/>
    <trip id="veh19" type="veh_passenger" depart="23.78" departLane="best" departSpeed="max" from="-177612810" to="107057067#2"/>
    <trip id="veh20" type="veh_passenger" depart="25.04" departLane="best" departSpeed="max" from="-177618182" to="177612406#2"/>
    <trip id="veh21" type="veh_passenger" depart="26.29" departLane="best" departSpeed="max" from="178132681#0" to="177612810"/>
    <trip id="veh22" type="veh_passenger" depart="27.54" departLane="best" from="177612800" to="107057067#2"/>
    <trip id="veh23" type="veh_passenger" depart="28.79" departLane="best" departSpeed="max" from="107057108" to="769038279#1"/>
    <trip id="veh24" type="veh_passenger" depart="30.04" departLane="best" departSpeed="max" from="178132681#0" to="178329461#1"/>
    <trip id="veh25" type="veh_passenger" depart="31.30" departLane="best" departSpeed="max" from="107057077#0" to="177618181#0"/>
    <trip id="veh26" type="veh_passenger" depart="32.55" departLane="best" departSpeed="max" from="769039656#0" to="178329461#1"/>
    <trip id="veh27" type="veh_passenger" depart="33.80" departLane="best" departSpeed="max" from="178123636" to="236668157#8"/>
    <trip id="veh28" type="veh_passenger" depart="35.05" departLane="best" departSpeed="max" from="495582283" to="236668158#6"/>
    <trip id="veh29" type="veh_passenger" depart="36.30" departLane="best" departSpeed="max" from="107057077#0" to="-178123202#0"/>
    <trip id="veh30" type="veh_passenger" depart="37.55" departLane="best" departSpeed="max" from="107057108" to="177612406#2"/>
    <trip id="veh31" type="veh_passenger" depart="38.81" departLane="best" departSpeed="max" from="107057077#0" to="769039656#7"/>
    <trip id="veh32" type="veh_passenger" depart="40.06" departLane="best" departSpeed="max" from="495582283" to="177612410#6"/>
    <trip id="veh33" type="veh_passenger" depart="41.31" departLane="best" from="178132681#1" to="177618181#0"/>
    <trip id="veh34" type="veh_passenger" depart="42.56" departLane="best" departSpeed="max" from="769038279#0" to="178122151#10"/>
    <trip id="veh35" type="veh_passenger" depart="43.81" departLane="best" departSpeed="max" from="107057108" to="107057077#7"/>
    <trip id="veh36" type="veh_passenger" depart="45.07" departLane="best" departSpeed="max" from="178127280#0" to="177612406#2"/>
    <trip id="veh37" type="veh_passenger" depart="46.32" departLane="best" departSpeed="max" from="178127280#0" to="667794410#5"/>
    <trip id="veh39" type="veh_passenger" depart="48.82" departLane="best" departSpeed="max" from="-177618182" to="178329461#1"/>
    <trip id="veh40" type="veh_passenger" depart="50.07" departLane="best" departSpeed="max" from="394727931#0" to="177618182"/>
    <trip id="veh41" type="veh_passenger" depart="51.32" departLane="best" departSpeed="max" from="-177612810" to="177618181#0"/>
    <trip id="veh42" type="veh_passenger" depart="52.58" departLane="best" from="769039656#4" to="178132938#1"/>
    <trip id="veh43" type="veh_passenger" depart="53.83" departLane="best" departSpeed="max" from="769039656#0" to="28833560#5"/>
    <trip id="veh44" type="veh_passenger" depart="55.08" departLane="best" departSpeed="max" from="-177612410#6" to="236668157#8"/>
    <trip id="veh45" type="veh_passenger" depart="56.33" departLane="best" departSpeed="max" from="233487131#0" to="178132938#1"/>
    <trip id="veh46" type="veh_passenger" depart="57.58" departLane="best" departSpeed="max" from="107057108" to="178329461#1"/>
    <trip id="veh47" type="veh_passenger" depart="58.84" departLane="best" departSpeed="max" from="495582283" to="177612406#2"/>
    <trip id="veh48" type="veh_passenger" depart="60.09" departLane="best" departSpeed="max" from="178123202#0" to="107057052"/>
    <trip id="veh49" type="veh_passenger" depart="61.34" departLane="best" departSpeed="max" from="769038279#0" to="28833560#5"/>
    <trip id="veh50" type="veh_passenger" depart="62.59" departLane="best" departSpeed="max" from="107057108" to="178329461#1"/>
    <trip id="veh51" type="veh_passenger" depart="63.84" departLane="best" from="178127286#1" to="107057052"/>
    <trip id="veh52" type="veh_passenger" depart="65.09" departLane="best" from="236668176#1" to="178132938#1"/>
    <trip id="veh53" type="veh_passenger" depart="66.35" departLane="best" departSpeed="max" from="394727931#0" to="178132938#1"/>
    <trip id="veh54" type="veh_passenger" depart="67.60" departLane="best" from="-177612410#1" to="177612410#6"/>
    <trip id="veh55" type="veh_passenger" depart="68.85" departLane="best" departSpeed="max" from="-177612410#6" to="769038279#1"/>
    <trip id="veh56" type="veh_passenger" depart="70.10" departLane="best" from="667794410#0" to="236668175#2"/>
    <trip id="veh58" type="veh_passenger" depart="72.61" departLane="best" departSpeed="max" from="495582283" to="769039656#8"/>
    <trip id="veh59" type="veh_passenger" depart="73.86" departLane="best" departSpeed="max" from="-177612810" to="178122151#10"/>
    <trip id="veh60" type="veh_passenger" depart="75.11" departLane="best" departSpeed="max" from="-177612810" to="236668158#6"/>
    <trip id="veh61" type="veh_passenger" depart="76.36" departLane="best" from="236668176#5" to="107057045#6"/>
    <trip id="veh62" type="veh_passenger" depart="77.61" departLane="best" departSpeed="max" from="178122151#0" to="178132938#1"/>
    <trip id="veh63" type="veh_passenger" depart="78.86" departLane="best" departSpeed="max" from="107057108" to="28833560#5"/>
    <trip id="veh64" type="veh_passenger" depart="80.12" departLane="best" departSpeed="max" from="178123636" to="236668157#8"/>
    <trip id="veh65" type="veh_passenger" depart="81.37" departLane="best" departSpeed="max" from="107057077#0" to="177612410#6"/>
    <trip id="veh66" type="veh_passenger" depart="82.62" departLane="best" from="769039656#2" to="236668157#4"/>
    <trip id="veh67" type="veh_passenger" depart="83.87" departLane="best" departSpeed="max" from="178122151#0" to="178127283#1"/>
    <trip id="veh68" type="veh_passenger" depart="85.12" departLane="best" departSpeed="max" from="-177618182" to="107057067#2"/>
    <trip id="veh69" type="veh_passenger" depart="86.38" departLane="best" departSpeed="max" from="177612401#0" to="178329461#1"/>
    <trip id="veh70" type="veh_passenger" depart="87.63" departLane="best" departSpeed="max" from="107057077#0" to="107057067#2"/>
    <trip id="veh71" type="veh_passenger" depart="88.88" departLane="best" departSpeed="max" from="-177612810" to="178329461#1"/>
    <trip id="veh72" type="veh_passenger" depart="90.13" departLane="best" departSpeed="max" from="107057077#0" to="769038279#1"/>
    <trip id="veh73" type="veh_passenger" depart="91.38" departLane="best" departSpeed="max" from="495582283" to="-178127280#0"/>
    <trip id="veh74" type="veh_passenger" depart="92.63" departLane="best" departSpeed="max" from="769039656#0" to="178329461#1"/>
    <trip id="veh75" type="veh_passenger" depart="93.89" departLane="best" departSpeed="max" from="178122151#0" to="236668158#6"/>
    <trip id="veh76" type="veh_passenger" depart="95.14" departLane="best" from="177621056#1" to="178122151#10"/>
    <trip id="veh77" type="veh_passenger" depart="96.39" departLane="best" departSpeed="max" from="236668165#0" to="236668157#8"/>
    <trip id="veh78" type="veh_passenger" depart="97.64" departLane="best" departSpeed="max" from="769039656#0" to="-178127280#0"/>
    <trip id="veh79" type="veh_passenger" depart="98.89" departLane="best" departSpeed="max" from="177621056#0" to="177612810"/>
    <trip id="veh80" type="veh_passenger" depart="100.15" departLane="best" departSpeed="max" from="107057077#0" to="177618182"/>
    <trip id="veh81" type="veh_passenger" depart="101.40" departLane="best" departSpeed="max" from="177621056#0" to="177612406#2"/>
    <trip id="veh82" type="veh_passenger" depart="102.65" departLane="best" departSpeed="max" from="107057077#0" to="769038279#1"/>
    <trip id="veh83" type="veh_passenger" depart="103.90" departLane="best" departSpeed="max" from="178122151#0" to="28833560#5"/>
    <trip id="veh85" type="veh_passenger" depart="106.40" departLane="best" departSpeed="max" from="769039656#0" to="769038279#1"/>
    <trip id="veh86" type="veh_passenger" depart="107.66" departLane="best" departSpeed="max" from="495582283" to="107057052"/>
    <trip id="veh87" type="veh_passenger" depart="108.91" departLane="best" departSpeed="max" from="178122151#0" to="107057067#2"/>
    <trip id="veh89" type="veh_passenger" depart="111.41" departLane="best" from="177618117#4" to="769039656#8"/>
    <trip id="veh90" type="veh_passenger" depart="112.66" departLane="best" departSpeed="max" from="107057108" to="236668158#6"/>
    <trip id="veh91" type="veh_passenger" depart="113.92" departLane="best" departSpeed="max" from="178122151#0" to="177618182"/>
    <trip id="veh92" type="veh_passenger" depart="115.17" departLane="best" departSpeed="max" from="769039656#0" to="769039656#8"/>
    <trip id="veh93" type="veh_passenger" depart="116.42" departLane="best" departSpeed="max" from="178123636" to="236668157#8"/>
    <trip id="veh94" type="veh_passenger" depart="117.67" departLane="best" departSpeed="max" from="107057077#0" to="177612410#6"/>
    <trip id="veh95" type="veh_passenger" depart="118.92" departLane="best" departSpeed="max" from="769039656#0" to="178329461#1"/>
    <trip id="veh96" type="veh_passenger" depart="120.17" departLane="best" departSpeed="max" from="178123636" to="236668158#3"/>
    <trip id="veh97" type="veh_passenger" depart="121.43" departLane="best" departSpeed="max" from="-177612810" to="178329461#1"/>
    <trip id="veh98" type="veh_passenger" depart="122.68" departLane="best" departSpeed="max" from="178123202#0" to="28833560#4"/>
    <trip id="veh99" type="veh_passenger" depart="123.93" departLane="best" departSpeed="max" from="107057077#0" to="769039656#8"/>
    <trip id="veh100" type="veh_passenger" depart="125.18" departLane="best" departSpeed="max" from="-177612810" to="107057052"/>
    <trip id="veh101" type="veh_passenger" depart="126.43" departLane="best" departSpeed="max" from="178127280#0" to="236668157#8"/>
    <trip id="veh102" type="veh_passenger" depart="127.69" departLane="best" departSpeed="max" from="769038279#0" to="107057077#7"/>
    <trip id="veh103" type="veh_passenger" depart="128.94" departLane="best" departSpeed="max" from="178127280#0" to="178329461#1"/>
    <trip id="veh104" type="veh_passenger" depart="130.19" departLane="best" departSpeed="max" from="177621056#0" to="178329461#1"/>
    <trip id="veh105" type="veh_passenger" depart="131.44" departLane="best" departSpeed="max" from="178123202#0" to="769038279#1"/>
    <trip id="veh106" type="veh_passenger" depart="132.69" departLane="best" departSpeed="max" from="107057077#0" to="177618181#0"/>
    <trip id="veh107" type="veh_passenger" depart="133.94" departLane="best" departSpeed="max" from="233487131#0" to="177612410#6"/>
    <trip id="veh108" type="veh_passenger" depart="135.20" departLane="best" departSpeed="max" from="107057108" to="236668158#6"/>
    <trip id="veh109" type="veh_passenger" depart="136.45" departLane="best" departSpeed="max" from="-177612810" to="178122151#10"/>
    <trip id="veh110" type="veh_passenger" depart="137.70" departLane="best" from="769039656#6" to="769039656#8"/>
    <trip id="veh111" type="veh_passenger" depart="138.95" departLane="best" departSpeed="max" from="-177612810" to="107057067#2"/>
    <trip id="veh112" type="veh_passenger" depart="140.20" departLane="best" departSpeed="max" from="107057108" to="769038279#1"/>
    <trip id="veh113" type="veh_passenger" depart="141.46" departLane="best" from="667794410#2" to="28833560#5"/>
    <trip id="veh114" type="veh_passenger" depart="142.71" departLane="best" from="177612410#4" to="107057052"/>
    <trip id="veh115" type="veh_passenger" depart="143.96" departLane="best" departSpeed="max" from="394727931#0" to="236668157#8"/>
    <trip id="veh116" type="veh_passenger" depart="145.21" departLane="best" from="178127286#5" to="769039656#8"/>
    <trip id="veh117" type="veh_passenger" depart="146.46" departLane="best" departSpeed="max" from="178132681#0" to="-177618355"/>
    <trip id="veh118" type="veh_passenger" depart="147.71" departLane="best" departSpeed="max" from="394727931#0" to="177612410#6"/>
    <trip id="veh119" type="veh_passenger" depart="148.97" departLane="best" departSpeed="max" from="233487131#0" to="769039656#2"/>
    <trip id="veh120" type="veh_passenger" depart="150.22" departLane="best" departSpeed="max" from="-177618182" to="107057045#6"/>
    <trip id="veh121" type="veh_passenger" depart="151.47" departLane="best" departSpeed="max" from="-177618182" to="178132938#1"/>
    <trip id="veh122" type="veh_passenger" depart="152.72" departLane="best" departSpeed="max" from="107057108" to="178329461#1"/>
    <trip id="veh123" type="veh_passenger" depart="153.97" departLane="best" departSpeed="max" from="178132681#0" to="177612406#2"/>
    <trip id="veh124" type="veh_passenger" depart="155.23" departLane="best" departSpeed="max" from="178122151#0" to="769038279#1"/>
    <trip id="veh125" type="veh_passenger" depart="156.48" departLane="best" departSpeed="max" from="495582283" to="-178127280#0"/>
    <trip id="veh126" type="veh_passenger" depart="157.73" departLane="best" from="177621056#1" to="177612406#2"/>
    <trip id="veh127" type="veh_passenger" depart="158.98" departLane="best" departSpeed="max" from="-177612410#6" to="236668158#6"/>
    <trip id="veh128" type="veh_passenger" depart="160.23" departLane="best" departSpeed="max" from="178132681#0" to="177612406#2"/>
    <trip id="veh129" type="veh_passenger" depart="161.48" departLane="best" departSpeed="max" from="236668165#0" to="178132938#1"/>
    <trip id="veh130" type="veh_passenger" depart="162.74" departLane="best" departSpeed="max" from="178122151#0" to="-178123202#0"/>
    <trip id="veh131" type="veh_passenger" depart="163.99" departLane="best" departSpeed="max" from="-177612810" to="28833560#5"/>
    <trip id="veh132" type="veh_passenger" depart="165.24" departLane="best" departSpeed="max" from="769038279#0" to="178132938#1"/>
    <trip id="veh133" type="veh_passenger" depart="166.49" departLane="best" from="394727931#1" to="178329461#1"/>
    <trip id="veh134" type="veh_passenger" depart="167.74" departLane="best" departSpeed="max" from="107057108" to="667794410#7"/>
    <trip id="veh135" type="veh_passenger" depart="169.00" departLane="best" departSpeed="max" from="394727931#0" to="28833560#5"/>
    <trip id="veh136" type="veh_passenger" depart="170.25" departLane="best" departSpeed="max" from="769038279#0" to="107057067#2"/>
    <trip id="veh137" type="veh_passenger" depart="171.50" departLane="best" departSpeed="max" from="107057077#0" to="-178127717"/>
    <trip id="veh138" type="veh_passenger" depart="172.75" departLane="best" departSpeed="max" from="394727931#0" to="28833560#5"/>
    <trip id="veh139" type="veh_passenger" depart="174.00" departLane="best" departSpeed="max" from="177621056#0" to="178329461#1"/>
    <trip id="veh140" type="veh_passenger" depart="175.25" departLane="best" departSpeed="max" from="107057077#0" to="769038279#1"/>
    <trip id="veh141" type="veh_passenger" depart="176.51" departLane="best" departSpeed="max" from="495582283" to="769039656#8"/>
    <trip id="veh142" type="veh_passenger" depart="177.76" departLane="best" departSpeed="max" from="394727931#0" to="28833560#5"/>
    <trip id="veh143" type="veh_passenger" depart="179.01" departLane="best" departSpeed="max" from="-177612410#6" to="236668157#8"/>
    <trip id="veh144" type="veh_passenger" depart="180.26" departLane="best" departSpeed="max" from="177612401#0" to="769038279#1"/>
    <trip id="veh145" type="veh_passenger" depart="181.51" departLane="best" departSpeed="max" from="394727931#0" to="28833560#5"/>
    <trip id="veh146" type="veh_passenger" depart="182.77" departLane="best" departSpeed="max" from="394727931#0" to="177612406#2"/>
    <trip id="veh147" type="veh_passenger" depart="184.02" departLane="best" departSpeed="max" from="394727931#0" to="107057045#6"/>
    <trip id="veh148" type="veh_passenger" depart="185.27" departLane="best" departSpeed="max" from="495582283" to="28833560#5"/>
    <trip id="veh149" type="veh_passenger" depart="186.52" departLane="best" departSpeed="max" from="107057077#0" to="236668175#2"/>
    <trip id="veh150" type="veh_passenger" depart="187.77" departLane="best" departSpeed="max" from="178122151#0" to="177612410#6"/>
    <trip id="veh151" type="veh_passenger" depart="189.02" departLane="best" departSpeed="max" from="394727931#0" to="107057067#2"/>
    <trip id="veh152" type="veh_passenger" depart="190.28" departLane="best" departSpeed="max" from="-177612410#6" to="107057052"/>
    <trip id="veh153" type="veh_passenger" depart="191.53" departLane="best" departSpeed="max" from="177612401#0" to="28833560#5"/>
    <trip id="veh154" type="veh_passenger" depart="192.78" departLane="best" departSpeed="max" from="769039656#0" to="177612406#2"/>
    <trip id="veh155" type="veh_passenger" depart="194.03" departLane="best" departSpeed="max" from="178132681#0" to="177618181#0"/>
    <trip id="veh156" type="veh_passenger" depart="195.28" departLane="best" departSpeed="max" from="769039656#0" to="107057045#6"/>
    <trip id="veh157" type="veh_passenger" depart="196.54" departLane="best" departSpeed="max" from="769039656#0" to="107057052"/>
    <trip id="veh158" type="veh_passenger" depart="197.79" departLane="best" departSpeed="max" from="769039656#0" to="177612406#2"/>
    <trip id="veh159" type="veh_passenger" depart="199.04" departLane="best" departSpeed="max" from="236668165#0" to="177612410#6"/>
    <trip id="veh160" type="veh_passenger" depart="200.29" departLane="best" from="178127283#3" to="178122151#7"/>
    <trip id="veh161" type="veh_passenger" depart="201.54" departLane="best" departSpeed="max" from="177621056#0" to="178329461#1"/>
    <trip id="veh162" type="veh_passenger" depart="202.79" departLane="best" from="107057077#5" to="236668157#8"/>
    <trip id="veh163" type="veh_passenger" depart="204.05" departLane="best" from="-177612410#2" to="769038279#1"/>
    <trip id="veh164" type="veh_passenger" depart="205.30" departLane="best" departSpeed="max" from="178123636" to="236668157#8"/>
    <trip id="veh165" type="veh_passenger" depart="206.55" departLane="best" departSpeed="max" from="236668165#0" to="236668157#8"/>
    <trip id="veh166" type="veh_passenger" depart="207.80" departLane="best" departSpeed="max" from="177612401#0" to="-178127280#0"/>
    <trip id="veh167" type="veh_passenger" depart="209.05" departLane="best" departSpeed="max" from="233487131#0" to="177612810"/>
    <trip id="veh168" type="veh_passenger" depart="210.31" departLane="best" departSpeed="max" from="107057108" to="236668176#4"/>
    <trip id="veh169" type="veh_passenger" depart="211.56" departLane="best" departSpeed="max" from="236668165#0" to="177612410#6"/>
    <trip id="veh170" type="veh_passenger" depart="212.81" departLane="best" departSpeed="max" from="107057108" to="177618181#0"/>
    <trip id="veh171" type="veh_passenger" depart="214.06" departLane="best" departSpeed="max" from="177621056#0" to="177612410#6"/>
    <trip id="veh172" type="veh_passenger" depart="215.31" departLane="best" departSpeed="max" from="769039656#0" to="236668157#8"/>
    <trip id="veh173" type="veh_passenger" depart="216.56" departLane="best" departSpeed="max" from="107057108" to="178132938#1"/>
    <trip id="veh174" type="veh_passenger" depart="217.82" departLane="best" from="-177612410#0" to="177612406#2"/>
    <trip id="veh175" type="veh_passenger" depart="219.07" departLane="best" departSpeed="max" from="178122151#0" to="178329461#1"/>
    <trip id="veh176" type="veh_passenger" depart="220.32" departLane="best" departSpeed="max" from="178122151#0" to="107057067#2"/>
    <trip id="veh177" type="veh_passenger" depart="221.57" departLane="best" departSpeed="max" from="178122151#0" to="769038279#1"/>
    <trip id="veh178" type="veh_passenger" depart="222.82" departLane="best" departSpeed="max" from="-177612810" to="178127281#0"/>
    <trip id="veh179" type="veh_passenger" depart="224.08" departLane="best" departSpeed="max" from="178132681#0" to="177612810"/>
    <trip id="veh180" type="veh_passenger" depart="225.33" departLane="best" departSpeed="max" from="394727931#0" to="236668158#6"/>
    <trip id="veh181" type="veh_passenger" depart="226.58" departLane="best" departSpeed="max" from="233487131#0" to="107057067#2"/>
    <trip id="veh182" type="veh_passenger" depart="227.83" departLane="best" departSpeed="max" from="107057077#0" to="-178123202#0"/>
    <trip id="veh183" type="veh_passenger" depart="229.08" departLane="best" departSpeed="max" from="107057077#0" to="178122151#10"/>
    <trip id="veh184" type="veh_passenger" depart="230.33" departLane="best" departSpeed="max" from="495582283" to="-178127280#0"/>
    <trip id="veh185" type="veh_passenger" depart="231.59" departLane="best" departSpeed="max" from="177621056#0" to="178329461#1"/>
    <trip id="veh186" type="veh_passenger" depart="232.84" departLane="best" departSpeed="max" from="178123202#0" to="107057077#5"/>
    <trip id="veh187" type="veh_passenger" depart="234.09" departLane="best" from="178132682#0" to="-177618117#1"/>
    <trip id="veh188" type="veh_passenger" depart="235.34" departLane="best" departSpeed="max" from="236668165#0" to="236668158#6"/>
    <trip id="veh189" type="veh_passenger" depart="236.59" departLane="best" departSpeed="max" from="107057077#0" to="769039656#8"/>
    <trip id="veh191" type="veh_passenger" depart="239.10" departLane="best" departSpeed="max" from="107057077#0" to="236668176#5"/>
    <trip id="veh192" type="veh_passenger" depart="240.35" departLane="best" departSpeed="max" from="178122151#0" to="236668175#2"/>
    <trip id="veh193" type="veh_passenger" depart="241.60" departLane="best" departSpeed="max" from="233487131#0" to="769039656#8"/>
    <trip id="veh194" type="veh_passenger" depart="242.85" departLane="best" departSpeed="max" from="178127280#0" to="769039656#8"/>
    <trip id="veh195" type="veh_passenger" depart="244.10" departLane="best" departSpeed="max" from="236668165#0" to="178122151#10"/>
    <trip id="veh196" type="veh_passenger" depart="245.36" departLane="best" departSpeed="max" from="394727931#0" to="178132938#1"/>
    <trip id="veh197" type="veh_passenger" depart="246.61" departLane="best" departSpeed="max" from="769038279#0" to="236668157#8"/>
    <trip id="veh198" type="veh_passenger" depart="247.86" departLane="best" departSpeed="max" from="178122151#0" to="177612406#2"/>
    <trip id="veh199" type="veh_passenger" depart="249.11" departLane="best" departSpeed="max" from="107057077#0" to="178329461#1"/>
    <trip id="veh200" type="veh_passenger" depart="250.36" departLane="best" from="236668176#5" to="178127286#1"/>
    <trip id="veh201" type="veh_passenger" depart="251.62" departLane="best" departSpeed="max" from="178132681#0" to="177612406#2"/>
    <trip id="veh202" type="veh_passenger" depart="252.87" departLane="best" departSpeed="max" from="-177612810" to="177612406#2"/>
    <trip id="veh203" type="veh_passenger" depart="254.12" departLane="best" departSpeed="max" from="107057108" to="177612410#6"/>
    <trip id="veh204" type="veh_passenger" depart="255.37" departLane="best" departSpeed="max" from="178123636" to="107057045#6"/>
    <trip id="veh206" type="veh_passenger" depart="257.87" departLane="best" departSpeed="max" from="177621056#0" to="178132938#1"/>
    <trip id="veh207" type="veh_passenger" depart="259.13" departLane="best" departSpeed="max" from="177621056#0" to="769038279#1"/>
    <trip id="veh208" type="veh_passenger" depart="260.38" departLane="best" departSpeed="max" from="178127280#0" to="236668157#8"/>
    <trip id="veh209" type="veh_passenger" depart="261.63" departLane="best" departSpeed="max" from="495582283" to="236668158#6"/>
    <trip id="veh210" type="veh_passenger" depart="262.88" departLane="best" from="177618355" to="-177618117#2"/>
    <trip id="veh211" type="veh_passenger" depart="264.13" departLane="best" departSpeed="max" from="177612401#0" to="236668158#6"/>
    <trip id="veh212" type="veh_passenger" depart="265.39" departLane="best" departSpeed="max" from="495582283" to="769039656#8"/>
    <trip id="veh213" type="veh_passenger" depart="266.64" departLane="best" departSpeed="max" from="177621056#0" to="236668158#2"/>
    <trip id="veh214" type="veh_passenger" depart="267.89" departLane="best" departSpeed="max" from="178123636" to="178329461#1"/>
    <trip id="veh215" type="veh_passenger" depart="269.14" departLane="best" departSpeed="max" from="107057077#0" to="107057067#2"/>
    <trip id="veh216" type="veh_passenger" depart="270.39" departLane="best" departSpeed="max" from="178122151#0" to="-178123202#0"/>
    <trip id="veh217" type="veh_passenger" depart="271.64" departLane="best" departSpeed="max" from="177612401#0" to="236668157#8"/>
    <trip id="veh218" type="veh_passenger" depart="272.90" departLane="best" departSpeed="max" from="177621056#0" to="107057052"/>
    <trip id="veh219" type="veh_passenger" depart="274.15" departLane="best" departSpeed="max" from="178122151#0" to="107057045#6"/>
    <trip id="veh220" type="veh_passenger" depart="275.40" departLane="best" departSpeed="max" from="178132681#0" to="-178123202#0"/>
    <trip id="veh221" type="veh_passenger" depart="276.65" departLane="best" departSpeed="max" from="177621056#0" to="178132938#1"/>
    <trip id="veh222" type="veh_passenger" depart="277.90" departLane="best" departSpeed="max" from="-177612410#6" to="233487131#4"/>
    <trip id="veh223" type="veh_passenger" depart="279.16" departLane="best" from="-177618183" to="178122151#10"/>
    <trip id="veh224" type="veh_passenger" depart="280.41" departLane="best" departSpeed="max" from="-177612810" to="177618181#0"/>
    <trip id="veh225" type="veh_passenger" depart="281.66" departLane="best" departSpeed="max" from="107057077#0" to="177612410#6"/>
    <trip id="veh227" type="veh_passenger" depart="284.16" departLane="best" departSpeed="max" from="236668165#0" to="236668175#2"/>
    <trip id="veh228" type="veh_passenger" depart="285.41" departLane="best" from="107057077#1" to="-178127280#0"/>
    <trip id="veh229" type="veh_passenger" depart="286.67" departLane="best" departSpeed="max" from="-177612410#6" to="178132938#1"/>
    <trip id="veh230" type="veh_passenger" depart="287.92" departLane="best" from="769039658" to="177612810"/>