<net xmlns:xsi="http://www.w3.org/2001/XMLSchema-instance" junctionCornerDetail="5" limitTurnSpeed="5.50" version="1.3" walkingareas="true" xsi:noNamespaceSchemaLocation="http://sumo.dlr.de/xsd/net_file.xsd">

    <location convBoundary="0.00,0.00,14109.26,17053.21" netOffset="-227532.36,-3376462.18" origBoundary="114.161123,30.490691,114.304995,30.645161" projParameter="+proj=utm +zone=50 +ellps=WGS84 +datum=WGS84 +units=m +no_defs" />

    <type allow="pedestrian" id="highway.bridleway" numLanes="1" oneway="1" priority="1" speed="2.78" width="2.00" />
    <type allow="bus" id="highway.bus_guideway" numLanes="1" oneway="1" priority="1" speed="13.89" />
    <type allow="bicycle" id="highway.cycleway" numLanes="1" oneway="0" priority="1" speed="8.33" width="1.00" />
    <type allow="pedestrian" id="highway.footway" numLanes="1" oneway="1" priority="1" speed="2.78" width="2.00" />
    <type allow="army" id="highway.ford" numLanes="1" oneway="0" priority="1" speed="2.78" />
    <type disallow="tram rail_urban rail rail_electric rail_fast ship" id="highway.living_street" numLanes="1" oneway="0" priority="2" speed="2.78" />
    <type allow="private emergency authority army vip passenger hov taxi bus coach delivery truck trailer motorcycle evehicle custom1 custom2" id="highway.motorway" numLanes="2" oneway="1" priority="14" speed="27.78" />
    <type allow="private emergency authority army vip passenger hov taxi bus coach delivery truck trailer motorcycle evehicle custom1 custom2" id="highway.motorway_link" numLanes="1" oneway="1" priority="9" speed="16.67" />
    <type allow="pedestrian bicycle" id="highway.path" numLanes="1" oneway="1" priority="1" speed="2.78" width="2.00" />
    <type allow="pedestrian" id="highway.pedestrian" numLanes="1" oneway="1" priority="1" speed="2.78" width="2.00" />
    <type disallow="pedestrian tram rail_urban rail rail_electric rail_fast ship" id="highway.primary" numLanes="2" oneway="0" priority="12" sidewalkWidth="3.00" speed="13.89" />
    <type disallow="pedestrian tram rail_urban rail rail_electric rail_fast ship" id="highway.primary_link" numLanes="1" oneway="0" priority="7" sidewalkWidth="3.00" speed="13.89" />
    <type allow="vip" id="highway.raceway" numLanes="2" oneway="0" priority="15" speed="83.33" />
    <type disallow="pedestrian tram rail_urban rail rail_electric rail_fast ship" id="highway.residential" numLanes="1" oneway="0" priority="3" sidewalkWidth="2.00" speed="13.89" />
    <type disallow="pedestrian tram rail_urban rail rail_electric rail_fast ship" id="highway.secondary" numLanes="1" oneway="0" priority="11" sidewalkWidth="3.00" speed="13.89" />
    <type disallow="pedestrian tram rail_urban rail rail_electric rail_fast ship" id="highway.secondary_link" numLanes="1" oneway="0" priority="6" sidewalkWidth="3.00" speed="13.89" />
    <type allow="pedestrian delivery bicycle" id="highway.service" numLanes="1" oneway="0" priority="1" speed="5.56" />
    <type allow="pedestrian" id="highway.stairs" numLanes="1" oneway="1" priority="1" speed="1.39" width="2.00" />
    <type allow="pedestrian" id="highway.step" numLanes="1" oneway="1" priority="1" speed="1.39" width="2.00" />
    <type allow="pedestrian" id="highway.steps" numLanes="1" oneway="1" priority="1" speed="1.39" width="2.00" />
    <type disallow="pedestrian tram rail_urban rail rail_electric rail_fast ship" id="highway.tertiary" numLanes="1" oneway="0" priority="10" sidewalkWidth="3.00" speed="13.89" />
    <type disallow="pedestrian tram rail_urban rail rail_electric rail_fast ship" id="highway.tertiary_link" numLanes="1" oneway="0" priority="5" sidewalkWidth="2.00" speed="13.89" />
    <type disallow="tram rail_urban rail rail_electric rail_fast ship" id="highway.track" numLanes="1" oneway="0" priority="1" speed="5.56" />
    <type disallow="pedestrian bicycle tram rail_urban rail rail_electric rail_fast ship" id="highway.trunk" numLanes="2" oneway="0" priority="13" speed="13.89" />
    <type disallow="pedestrian bicycle tram rail_urban rail rail_electric rail_fast ship" id="highway.trunk_link" numLanes="1" oneway="0" priority="8" speed="13.89" />
    <type disallow="pedestrian tram rail_urban rail rail_electric rail_fast ship" id="highway.unclassified" numLanes="1" oneway="0" priority="4" sidewalkWidth="2.00" speed="13.89" />
    <type disallow="tram rail_urban rail rail_electric rail_fast ship" id="highway.unsurfaced" numLanes="1" oneway="0" priority="1" speed="8.33" />
    <type allow="rail_fast" id="railway.highspeed" numLanes="1" oneway="1" priority="21" speed="69.44" />
    <type allow="rail_urban" id="railway.light_rail" numLanes="1" oneway="1" priority="19" speed="27.78" />
    <type allow="rail" id="railway.preserved" numLanes="1" oneway="1" priority="16" speed="27.78" />
    <type allow="rail" id="railway.rail" numLanes="1" oneway="1" priority="20" speed="44.44" />
    <type allow="rail_urban" id="railway.subway" numLanes="1" oneway="1" priority="18" speed="27.78" />
    <type allow="tram" id="railway.tram" numLanes="1" oneway="1" priority="17" speed="13.89" />

    <edge function="internal" id=":1186631581_0">
        <lane disallow="pedestrian tram rail_urban rail rail_electric rail_fast ship" id=":1186631581_0_0" index="0" length="6.63" shape="9311.38,9398.09 9308.35,9397.64 9306.09,9398.33 9305.34,9399.27" speed="6.62" />
    </edge>
    <edge function="internal" id=":1186631581_1">
        <lane disallow="pedestrian tram rail_urban rail rail_electric rail_fast ship" id=":1186631581_1_0" index="0" length="12.86" shape="9311.38,9398.09 9307.74,9396.89 9305.18,9396.10 9302.59,9395.87 9298.87,9396.36" speed="13.89" />
    </edge>
    <edge function="internal" id=":1186631581_5">
        <lane disallow="pedestrian tram rail_urban rail rail_electric rail_fast ship" id=":1186631581_5_0" index="0" length="4.23" shape="9305.34,9399.27 9304.61,9400.17 9303.90,9403.15" speed="6.62" />
    </edge>
    <edge function="internal" id=":1186631581_2">
        <lane disallow="pedestrian tram rail_urban rail rail_electric rail_fast ship" id=":1186631581_2_0" index="0" length="9.96" shape="9304.59,9393.09 9303.90,9403.15" speed="13.89" />
        <lane disallow="pedestrian tram rail_urban rail rail_electric rail_fast ship" id=":1186631581_2_1" index="1" length="9.96" shape="9301.39,9393.07 9300.72,9402.87" speed="13.89" />
    </edge>
    <edge function="internal" id=":1186631581_4">
        <lane disallow="pedestrian tram rail_urban rail rail_electric rail_fast ship" id=":1186631581_4_0" index="0" length="4.55" shape="9301.39,9393.07 9301.22,9394.33 9300.75,9395.30 9299.97,9395.98 9298.87,9396.36" speed="5.19" />
    </edge>
    <edge crossingEdges="107057045#3" function="crossing" id=":1186631581_c0">
        <lane allow="pedestrian" id=":1186631581_c0_0" index="0" length="3.20" shape="9309.92,9395.99 9309.00,9399.05" speed="1.00" width="4.00" />
    </edge>
    <edge crossingEdges="178122151#9" function="crossing" id=":1186631581_c1">
        <lane allow="pedestrian" id=":1186631581_c1_0" index="0" length="6.40" shape="9305.67,9401.30 9299.30,9400.74" speed="1.00" width="4.00" />
    </edge>
    <edge function="walkingarea" id=":1186631581_w0">
        <lane allow="pedestrian" id=":1186631581_w0_0" index="0" length="3.81" shape="9305.50,9403.30 9308.49,9403.56 9310.06,9402.50 9310.92,9399.63 9309.39,9399.31 9308.11,9399.37 9307.08,9399.80 9306.30,9400.60 9305.78,9401.76" speed="1.00" width="4.00" />
    </edge>
    <edge function="walkingarea" id=":1186631581_w1">
        <lane allow="pedestrian" id=":1186631581_w1_0" index="0" length="3.64" shape="9311.84,9396.56 9309.19,9393.12 9306.19,9393.10 9306.34,9393.69 9306.81,9394.27 9307.60,9394.85 9308.69,9395.42 9310.11,9395.99" speed="1.00" width="4.00" />
    </edge>
    <edge function="walkingarea" id=":1186631581_w2">
        <lane allow="pedestrian" id=":1186631581_w2_0" index="0" length="1.34" shape="9299.17,9397.93 9299.74,9400.88 9299.12,9402.73 9299.23,9402.01 9299.39,9401.00 9299.55,9399.89 9299.62,9398.87 9299.52,9398.15" speed="1.00" width="4.00" />
    </edge>
    <edge function="internal" id=":1230843691_0">
        <lane disallow="pedestrian tram rail_urban rail rail_electric rail_fast ship" id=":1230843691_0_0" index="0" length="9.52" shape="9948.52,8933.82 9947.66,8930.08 9946.09,8927.86 9943.75,8926.03" speed="12.79" />
    </edge>
    <edge function="internal" id=":1230843691_1">
        <lane disallow="pedestrian tram rail_urban rail rail_electric rail_fast ship" id=":1230843691_1_0" index="0" length="12.58" shape="9948.52,8933.82 9947.15,8921.31" speed="13.89" />
        <lane disallow="pedestrian tram rail_urban rail rail_electric rail_fast ship" id=":1230843691_1_1" index="1" length="12.58" shape="9951.70,8933.46 9950.33,8920.96" speed="13.89" />
        <lane disallow="pedestrian tram rail_urban rail rail_electric rail_fast ship" id=":1230843691_1_2" index="2" length="12.58" shape="9954.89,8933.11 9953.51,8920.61" speed="13.89" />
    </edge>
    <edge function="internal" id=":1230843691_4">
        <lane disallow="pedestrian tram rail_urban rail rail_electric rail_fast ship" id=":1230843691_4_0" index="0" length="4.08" shape="9943.75,8926.03 9940.55,8923.50" speed="12.79" />
    </edge>
    <edge crossingEdges="107057069" function="crossing" id=":1230843691_c0">
        <lane allow="pedestrian" id=":1230843691_c0_0" index="0" length="3.20" shape="9940.98,8926.03 9943.11,8923.64" speed="1.00" width="4.00" />
    </edge>
    <edge function="walkingarea" id=":1230843691_w0">
        <lane allow="pedestrian" id=":1230843691_w0_0" index="0" length="7.54" shape="9939.49,8924.70 9937.49,8926.93 9943.95,8934.32 9946.93,8933.99 9946.46,8931.52 9945.70,8929.83 9944.63,8928.61 9943.25,8927.55 9941.54,8926.35" speed="1.00" width="4.00" />
    </edge>
    <edge function="walkingarea" id=":1230843691_w1">
        <lane allow="pedestrian" id=":1230843691_w1_0" index="0" length="2.21" shape="9945.56,8921.49 9942.57,8921.82 9941.62,8922.31 9942.97,8923.39 9944.04,8923.99 9944.84,8924.10 9945.35,8923.72 9945.59,8922.85" speed="1.00" width="4.00" />
    </edge>
    <edge function="internal" id=":1230843702_0">
        <lane disallow="pedestrian bicycle tram rail_urban rail rail_electric rail_fast ship" id=":1230843702_0_0" index="0" length="7.83" shape="10035.42,9585.12 10035.61,9582.91 10034.93,9581.35 10034.16,9579.77 10034.11,9577.50" speed="13.89" />
        <lane disallow="pedestrian bicycle tram rail_urban rail rail_electric rail_fast ship" id=":1230843702_0_1" index="1" length="7.83" shape="10035.42,9585.12 10036.08,9583.07 10036.49,9581.66 10036.82,9580.22 10037.25,9578.11" speed="13.89" />
        <lane disallow="pedestrian bicycle tram rail_urban rail rail_electric rail_fast ship" id=":1230843702_0_2" index="2" length="7.83" shape="10035.42,9585.12 10036.61,9583.05 10038.08,9581.97 10039.46,9580.86 10040.38,9578.73" speed="13.89" />
    </edge>
    <edge function="internal" id=":1230843704_0">
        <lane disallow="pedestrian tram rail_urban rail rail_electric rail_fast ship" id=":1230843704_0_0" index="0" length="7.74" shape="10026.17,8893.10 10024.20,8893.47 10021.98,8894.68 10019.50,8896.73" speed="10.36" />
    </edge>
    <edge function="internal" id=":1230843704_1">
        <lane disallow="pedestrian tram rail_urban rail rail_electric rail_fast ship" id=":1230843704_1_0" index="0" length="11.00" shape="10026.17,8893.10 10015.17,8892.80" speed="13.89" />
    </edge>
    <edge function="internal" id=":1230843704_2">
        <lane disallow="pedestrian tram rail_urban rail rail_electric rail_fast ship" id=":1230843704_2_0" index="0" length="3.97" shape="10019.50,8896.73 10016.78,8899.62" speed="10.36" />
    </edge>
    <edge crossingEdges="107057039" function="crossing" id=":1230843704_c0">
        <lane allow="pedestrian" id=":1230843704_c0_0" index="0" length="3.20" shape="10019.29,8899.15 10016.87,8897.06" speed="1.00" width="4.00" />
    </edge>
    <edge function="walkingarea" id=":1230843704_w0">
        <lane allow="pedestrian" id=":1230843704_w0_0" index="0" length="6.24" shape="10017.99,8900.66 10020.26,8902.62 10026.04,8897.70 10026.12,8894.70 10025.08,8894.85 10023.92,8895.33 10022.63,8896.15 10021.21,8897.32 10019.66,8898.82" speed="1.00" width="4.00" />
    </edge>
    <edge function="walkingarea" id=":1230843704_w1">
        <lane allow="pedestrian" id=":1230843704_w1_0" index="0" length="2.13" shape="10015.13,8894.40 10015.04,8897.40 10015.56,8898.58 10016.53,8897.33 10017.07,8896.30 10017.21,8895.50 10016.93,8894.91 10016.23,8894.55" speed="1.00" width="4.00" />
    </edge>
    <edge function="internal" id=":1230843757_0">
        <lane disallow="pedestrian tram rail_urban rail rail_electric rail_fast ship" id=":1230843757_0_0" index="0" length="10.10" shape="9945.08,8853.67 9944.00,8843.61" speed="13.89" />
        <lane disallow="pedestrian tram rail_urban rail rail_electric rail_fast ship" id=":1230843757_0_1" index="1" length="10.10" shape="9948.26,8853.32 9947.18,8843.29" speed="13.89" />
    </edge>
    <edge function="internal" id=":1230843757_2">
        <lane disallow="pedestrian tram rail_urban rail rail_electric rail_fast ship" id=":1230843757_2_0" index="0" length="10.87" shape="9938.18,8852.28 9940.88,8850.03 9942.75,8847.83 9943.79,8845.69 9944.00,8843.61" speed="9.02" />
    </edge>
    <edge crossingEdges="107057088" function="crossing" id=":1230843757_c0">
        <lane allow="pedestrian" id=":1230843757_c0_0" index="0" length="3.20" shape="9940.74,8852.39 9938.85,8849.81" speed="1.00" width="4.00" />
    </edge>
    <edge function="walkingarea" id=":1230843757_w0">
        <lane allow="pedestrian" id=":1230843757_w0_0" index="0" length="2.05" shape="9939.13,8853.57 9940.50,8854.18 9943.48,8853.85 9943.27,8852.95 9942.84,8852.39 9942.22,8852.17 9941.39,8852.30 9940.36,8852.77" speed="1.00" width="4.00" />
    </edge>
    <edge function="walkingarea" id=":1230843757_w1">
        <lane allow="pedestrian" id=":1230843757_w1_0" index="0" length="5.39" shape="9942.40,8843.77 9939.42,8844.07 9935.46,8848.57 9937.24,8850.99 9938.91,8849.67 9940.25,8848.40 9941.27,8847.18 9941.97,8846.00 9942.35,8844.86" speed="1.00" width="4.00" />
    </edge>
    <edge function="internal" id=":1230843772_0">
        <lane disallow="pedestrian bicycle tram rail_urban rail rail_electric rail_fast ship" id=":1230843772_0_0" index="0" length="8.79" shape="10042.98,9580.03 10042.92,9582.54 10043.65,9584.28 10044.38,9586.02 10044.30,9588.52" speed="13.89" />
    </edge>
    <edge function="internal" id=":1230843930_0">
        <lane disallow="pedestrian tram rail_urban rail rail_electric rail_fast ship" id=":1230843930_0_0" index="0" length="13.49" shape="10007.16,8871.39 10009.96,8874.31 10011.95,8876.50 10014.25,8877.89 10018.00,8878.44" speed="12.93" />
    </edge>
    <edge function="internal" id=":1230843930_1">
        <lane disallow="pedestrian tram rail_urban rail rail_electric rail_fast ship" id=":1230843930_1_0" index="0" length="12.43" shape="10005.58,8878.15 10018.00,8878.44" speed="13.89" />
    </edge>
    <edge crossingEdges="107057091" function="crossing" id=":1230843930_c0">
        <lane allow="pedestrian" id=":1230843930_c0_0" index="0" length="3.20" shape="10007.56,8873.92 10009.72,8871.56" speed="1.00" width="4.00" />
    </edge>
    <edge function="walkingarea" id=":1230843930_w0">
        <lane allow="pedestrian" id=":1230843930_w0_0" index="0" length="7.49" shape="10018.04,8876.84 10018.11,8873.84 10010.27,8868.00 10008.24,8870.21 10010.07,8872.08 10011.41,8873.67 10012.56,8874.97 10013.84,8875.95 10015.57,8876.58" speed="1.00" width="4.00" />
    </edge>
    <edge function="walkingarea" id=":1230843930_w1">
        <lane allow="pedestrian" id=":1230843930_w1_0" index="0" length="2.21" shape="10006.08,8872.57 10005.69,8873.55 10005.62,8876.55 10007.00,8876.47 10007.86,8876.16 10008.20,8875.61 10008.02,8874.83 10007.31,8873.82" speed="1.00" width="4.00" />
    </edge>
    <edge function="internal" id=":1230843983_0">
        <lane disallow="pedestrian tram rail_urban rail rail_electric rail_fast ship" id=":1230843983_0_0" index="0" length="15.85" shape="9915.55,8901.17 9912.28,8898.16 9909.79,8896.22 9906.96,8895.11 9902.66,8894.64" speed="13.89" />
        <lane disallow="pedestrian tram rail_urban rail rail_electric rail_fast ship" id=":1230843983_0_1" index="1" length="15.85" shape="9915.55,8901.17 9912.16,8897.44 9909.94,8894.43 9907.33,8892.36 9902.80,8891.44" speed="13.89" />
    </edge>
    <edge function="internal" id=":1230843983_2">
        <lane disallow="pedestrian tram rail_urban rail rail_electric rail_fast ship" id=":1230843983_2_0" index="0" length="13.93" shape="9916.90,8894.34 9902.66,8894.64" speed="13.89" />
        <lane disallow="pedestrian tram rail_urban rail rail_electric rail_fast ship" id=":1230843983_2_1" index="1" length="13.93" shape="9916.83,8891.14 9902.80,8891.44" speed="13.89" />
        <lane disallow="pedestrian tram rail_urban rail rail_electric rail_fast ship" id=":1230843983_2_2" index="2" length="13.93" shape="9916.76,8887.94 9902.94,8888.24" speed="13.89" />
        <lane disallow="pedestrian tram rail_urban rail rail_electric rail_fast ship" id=":1230843983_2_3" index="3" length="13.93" shape="9916.69,8884.74 9903.08,8885.05" speed="13.89" />
    </edge>
    <edge crossingEdges="107057069" function="crossing" id=":1230843983_c0">
        <lane allow="pedestrian" id=":1230843983_c0_0" index="0" length="3.20" shape="9915.13,8898.64 9912.99,8901.03" speed="1.00" width="4.00" />
    </edge>
    <edge function="walkingarea" id=":1230843983_w0">
        <lane allow="pedestrian" id=":1230843983_w0_0" index="0" length="8.61" shape="9902.59,8896.23 9902.46,8899.23 9912.49,8904.60 9914.48,8902.36 9912.34,8900.38 9910.67,8898.86 9909.17,8897.74 9907.54,8896.96 9905.45,8896.48" speed="1.00" width="4.00" />
    </edge>
    <edge function="walkingarea" id=":1230843983_w1">
        <lane allow="pedestrian" id=":1230843983_w1_0" index="0" length="2.20" shape="9916.62,8899.97 9917.00,8898.94 9916.93,8895.94 9915.61,8896.08 9914.80,8896.43 9914.50,8897.00 9914.70,8897.78 9915.40,8898.77" speed="1.00" width="4.00" />
    </edge>
    <edge function="internal" id=":1230844038_0">
        <lane disallow="pedestrian tram rail_urban rail rail_electric rail_fast ship" id=":1230844038_0_0" index="0" length="9.38" shape="9976.87,8840.75 9977.72,8844.41 9979.29,8846.58 9981.62,8848.36" speed="12.81" />
    </edge>
    <edge function="internal" id=":1230844038_1">
        <lane disallow="pedestrian tram rail_urban rail rail_electric rail_fast ship" id=":1230844038_1_0" index="0" length="12.35" shape="9976.87,8840.75 9978.13,8853.03" speed="13.89" />
        <lane disallow="pedestrian tram rail_urban rail rail_electric rail_fast ship" id=":1230844038_1_1" index="1" length="12.35" shape="9973.69,8841.09 9974.95,8853.37" speed="13.89" />
    </edge>
    <edge function="internal" id=":1230844038_3">
        <lane disallow="pedestrian tram rail_urban rail rail_electric rail_fast ship" id=":1230844038_3_0" index="0" length="4.02" shape="9981.62,8848.36 9984.76,8850.88" speed="12.81" />
    </edge>
    <edge crossingEdges="107057091" function="crossing" id=":1230844038_c0">
        <lane allow="pedestrian" id=":1230844038_c0_0" index="0" length="3.20" shape="9984.37,8848.35 9982.20,8850.71" speed="1.00" width="4.00" />
    </edge>
    <edge function="walkingarea" id=":1230844038_w0">
        <lane allow="pedestrian" id=":1230844038_w0_0" index="0" length="2.23" shape="9979.72,8852.83 9982.71,8852.57 9983.68,8852.06 9982.35,8850.97 9981.29,8850.37 9980.50,8850.26 9979.97,8850.65 9979.72,8851.52" speed="1.00" width="4.00" />
    </edge>
    <edge function="walkingarea" id=":1230844038_w1">
        <lane allow="pedestrian" id=":1230844038_w1_0" index="0" length="7.43" shape="9985.84,8849.70 9987.87,8847.49 9981.44,8840.26 9978.46,8840.58 9978.92,8843.00 9979.69,8844.65 9980.76,8845.84 9982.14,8846.87 9983.83,8848.05" speed="1.00" width="4.00" />
    </edge>
    <edge function="internal" id=":1230844039_0">
        <lane disallow="pedestrian tram rail_urban rail rail_electric rail_fast ship" id=":1230844039_0_0" index="0" length="12.13" shape="9992.24,8928.08 9989.62,8931.36 9987.79,8934.20 9986.74,8936.58 9986.49,8938.52" speed="11.37" />
    </edge>
    <edge function="internal" id=":1230844039_1">
        <lane disallow="pedestrian tram rail_urban rail rail_electric rail_fast ship" id=":1230844039_1_0" index="0" length="11.37" shape="9985.32,8927.17 9986.49,8938.52" speed="13.89" />
        <lane disallow="pedestrian tram rail_urban rail rail_electric rail_fast ship" id=":1230844039_1_1" index="1" length="11.37" shape="9982.14,8927.52 9983.31,8938.79" speed="13.89" />
    </edge>
    <edge crossingEdges="107057039" function="crossing" id=":1230844039_c0">
        <lane allow="pedestrian" id=":1230844039_c0_0" index="0" length="3.20" shape="9989.73,8928.55 9992.15,8930.64" speed="1.00" width="4.00" />
    </edge>
    <edge function="walkingarea" id=":1230844039_w0">
        <lane allow="pedestrian" id=":1230844039_w0_0" index="0" length="6.70" shape="9988.09,8938.38 9991.08,8938.12 9995.73,8931.09 9993.46,8929.13 9991.75,8931.19 9990.37,8933.04 9989.31,8934.69 9988.58,8936.13 9988.17,8937.36" speed="1.00" width="4.00" />
    </edge>
    <edge function="walkingarea" id=":1230844039_w1">
        <lane allow="pedestrian" id=":1230844039_w1_0" index="0" length="2.16" shape="9991.03,8927.04 9989.89,8926.68 9986.91,8927.00 9987.15,8928.20 9987.57,8928.91 9988.17,8929.15 9988.95,8928.92 9989.90,8928.22" speed="1.00" width="4.00" />
    </edge>
    <edge function="internal" id=":1230844115_0">
        <lane disallow="pedestrian tram rail_urban rail rail_electric rail_fast ship" id=":1230844115_0_0" index="0" length="13.30" shape="9906.24,8871.00 9911.22,8870.79 9914.53,8869.67 9917.54,8867.57 9918.45,8866.86" speed="13.89" />
    </edge>
    <edge function="internal" id=":1230844115_1">
        <lane disallow="pedestrian tram rail_urban rail rail_electric rail_fast ship" id=":1230844115_1_0" index="0" length="16.66" shape="9906.24,8871.00 9922.79,8871.21" speed="13.89" />
        <lane disallow="pedestrian tram rail_urban rail rail_electric rail_fast ship" id=":1230844115_1_1" index="1" length="16.66" shape="9906.13,8874.20 9922.75,8874.41" speed="13.89" />
        <lane disallow="pedestrian tram rail_urban rail rail_electric rail_fast ship" id=":1230844115_1_2" index="2" length="16.66" shape="9906.02,8877.39 9922.71,8877.61" speed="13.89" />
        <lane disallow="pedestrian tram rail_urban rail rail_electric rail_fast ship" id=":1230844115_1_3" index="3" length="16.66" shape="9905.91,8880.59 9922.67,8880.81" speed="13.89" />
    </edge>
    <edge function="internal" id=":1230844115_5">
        <lane disallow="pedestrian tram rail_urban rail rail_electric rail_fast ship" id=":1230844115_5_0" index="0" length="4.00" shape="9918.45,8866.86 9921.62,8864.41" speed="13.89" />
    </edge>
    <edge crossingEdges="107057088" function="crossing" id=":1230844115_c0">
        <lane allow="pedestrian" id=":1230844115_c0_0" index="0" length="3.20" shape="9919.06,8864.30 9920.95,8866.88" speed="1.00" width="4.00" />
    </edge>
    <edge function="walkingarea" id=":1230844115_w0">
        <lane allow="pedestrian" id=":1230844115_w0_0" index="0" length="2.25" shape="9922.81,8869.61 9922.85,8866.61 9922.56,8865.70 9921.12,8866.88 9920.26,8867.84 9920.01,8868.60 9920.35,8869.14 9921.28,8869.48" speed="1.00" width="4.00" />
    </edge>
    <edge function="walkingarea" id=":1230844115_w1">
        <lane allow="pedestrian" id=":1230844115_w1_0" index="0" length="10.14" shape="9920.67,8863.12 9918.90,8860.70 9906.40,8866.40 9906.29,8869.40 9909.64,8869.35 9912.10,8868.92 9914.05,8868.10 9915.87,8866.87 9917.95,8865.21" speed="1.00" width="4.00" />
    </edge>
    <edge function="internal" id=":1230844176_0">
        <lane disallow="pedestrian tram rail_urban rail rail_electric rail_fast ship" id=":1230844176_0_0" index="0" length="8.82" shape="9920.36,9833.05 9922.88,9833.75 9924.98,9833.63 9926.65,9832.68 9927.91,9830.90" speed="6.57" />
    </edge>
    <edge function="internal" id=":1230844176_1">
        <lane disallow="pedestrian tram rail_urban rail rail_electric rail_fast ship" id=":1230844176_1_0" index="0" length="11.49" shape="9920.36,9833.05 9924.17,9834.29 9927.18,9834.58 9929.39,9833.91 9930.80,9832.28" speed="7.41" />
    </edge>
    <edge function="internal" id=":1230844176_2">
        <lane disallow="pedestrian tram rail_urban rail rail_electric rail_fast ship" id=":1230844176_2_0" index="0" length="14.31" shape="9920.36,9833.05 9925.47,9834.83 9929.39,9835.53 9932.13,9835.13 9933.68,9833.65" speed="8.20" />
    </edge>
    <edge function="walkingarea" id=":1230844176_w0">
        <lane allow="pedestrian" id=":1230844176_w0_0" index="0" length="3.91" shape="9926.46,9830.22 9923.75,9828.93 9921.72,9829.71 9920.96,9831.57 9922.24,9831.99 9923.38,9832.15 9924.37,9832.06 9925.21,9831.70 9925.91,9831.09" speed="1.00" width="3.00" />
    </edge>
    <edge function="internal" id=":1230844307_0">
        <lane disallow="pedestrian tram rail_urban rail rail_electric rail_fast ship" id=":1230844307_0_0" index="0" length="46.27" shape="10010.44,9650.33 10014.22,9638.11 10015.86,9628.00 10016.75,9617.70 10018.26,9604.89" speed="13.89" />
    </edge>
    <edge function="internal" id=":1230844307_1">
        <lane disallow="pedestrian tram rail_urban rail rail_electric rail_fast ship" id=":1230844307_1_0" index="0" length="46.94" shape="10013.43,9651.46 10017.24,9639.14 10018.94,9628.81 10019.89,9618.27 10021.42,9605.36" speed="13.89" />
    </edge>
    <edge function="internal" id=":1230844307_2">
        <lane disallow="pedestrian tram rail_urban rail rail_electric rail_fast ship" id=":1230844307_2_0" index="0" length="47.62" shape="10016.43,9652.59 10020.26,9640.17 10022.02,9629.61 10023.03,9618.85 10024.59,9605.84" speed="13.89" />
    </edge>
    <edge function="internal" id=":1230844307_3">
        <lane disallow="pedestrian bicycle tram rail_urban rail rail_electric rail_fast ship" id=":1230844307_3_0" index="0" length="47.42" shape="10016.43,9652.59 10021.05,9638.20 10024.45,9624.42 10026.81,9613.27 10028.33,9606.73" speed="13.89" />
    </edge>
    <edge function="walkingarea" id=":1230844307_w0">
        <lane allow="pedestrian" id=":1230844307_w0_0" index="0" length="45.45" shape="10016.67,9604.65 10013.71,9604.20 10006.14,9648.70 10008.94,9649.76 10012.09,9640.56 10013.77,9633.58 10014.54,9627.66 10014.93,9621.64 10015.46,9614.35" speed="1.00" width="3.00" />
    </edge>
    <edge function="internal" id=":1230844348_0">
        <lane disallow="pedestrian tram rail_urban rail rail_electric rail_fast ship" id=":1230844348_0_0" index="0" length="91.83" shape="10058.89,9592.10 10019.16,9674.89" speed="13.89" />
    </edge>
    <edge function="internal" id=":1230844348_1">
        <lane disallow="pedestrian tram rail_urban rail rail_electric rail_fast ship" id=":1230844348_1_0" index="0" length="91.54" shape="10052.62,9589.67 10022.14,9676.03" speed="13.89" />
        <lane disallow="pedestrian tram rail_urban rail rail_electric rail_fast ship" id=":1230844348_1_1" index="1" length="91.54" shape="10049.60,9588.60 10019.16,9674.89" speed="13.89" />
    </edge>
    <edge function="internal" id=":1230844348_3">
        <lane disallow="pedestrian tram rail_urban rail rail_electric rail_fast ship" id=":1230844348_3_0" index="0" length="2.29" shape="10023.10,9678.12 10022.14,9676.03" speed="13.89" />
    </edge>
    <edge crossingEdges="177617884#2" function="crossing" id=":1230844348_c0">
        <lane allow="pedestrian" id=":1230844348_c0_0" index="0" length="3.20" shape="10056.58,9593.20 10059.46,9594.60" speed="1.00" width="4.00" />
    </edge>
    <edge function="walkingarea" id=":1230844348_w0">
        <lane allow="pedestrian" id=":1230844348_w0_0" index="0" length="61.10" shape="10023.64,9676.60 10026.44,9677.68 10063.03,9594.11 10060.33,9592.80 10058.59,9596.40" speed="1.00" width="4.00" />
    </edge>
    <edge function="walkingarea" id=":1230844348_w1">
        <lane allow="pedestrian" id=":1230844348_w1_0" index="0" length="2.71" shape="10057.45,9591.40 10056.97,9591.17 10054.12,9590.23 10051.92,9597.22 10050.81,9601.53 10050.80,9603.11 10051.91,9601.95 10054.12,9598.04" speed="1.00" width="4.00" />
    </edge>
    <edge function="internal" id=":1877175230_0">
        <lane disallow="pedestrian tram rail_urban rail rail_electric rail_fast ship" id=":1877175230_0_0" index="0" length="4.67" shape="10911.30,8984.69 10912.16,8985.84 10912.27,8986.73 10911.63,8987.35 10910.23,8987.70" speed="3.65" />
    </edge>
    <edge function="walkingarea" id=":1877175230_w0">
        <lane allow="pedestrian" id=":1877175230_w0_0" index="0" length="8.40" shape="10909.69,8989.21 10909.02,8991.09 10912.51,8981.29 10911.84,8983.18" speed="1.00" width="2.00" />
    </edge>
    <edge function="internal" id=":1880327704_0">
        <lane disallow="pedestrian tram rail_urban rail rail_electric rail_fast ship" id=":1880327704_0_0" index="0" length="9.53" shape="10363.65,8737.00 10360.81,8736.89 10358.74,8737.62 10357.45,8739.19 10356.93,8741.60" speed="6.42" />
    </edge>
    <edge function="internal" id=":1880327704_1">
        <lane disallow="pedestrian tram rail_urban rail rail_electric rail_fast ship" id=":1880327704_1_0" index="0" length="10.02" shape="10363.65,8737.00 10353.73,8735.60" speed="13.89" />
    </edge>
    <edge function="internal" id=":1880327704_2">
        <lane disallow="pedestrian tram rail_urban rail rail_electric rail_fast ship" id=":1880327704_2_0" index="0" length="4.67" shape="10363.65,8737.00 10362.60,8736.02 10362.33,8735.16 10362.85,8734.44 10364.17,8733.84" speed="3.65" />
    </edge>
    <edge function="internal" id=":1880327704_3">