<?xml version="1.0" encoding="UTF-8"?>

<!-- generated on Fri Dec 20 14:30:10 2019 by Eclipse SUMO polyconvert Version 1.4.0
<configuration xmlns:xsi="http://www.w3.org/2001/XMLSchema-instance" xsi:noNamespaceSchemaLocation="http://sumo.dlr.de/xsd/polyconvertConfiguration.xsd">

    <input>
        <net-file value="osm.net.xml"/>
        <osm-files value="osm_bbox.osm.xml"/>
        <osm.keep-full-type value="true"/>
        <type-file value="/usr/share/sumo/data/typemap/osmPolyconvert.typ.xml"/>
    </input>

    <output>
        <output-file value="osm.poly.xml"/>
    </output>

    <processing>
        <poi-layer-offset value="5"/>
    </processing>

    <report>
        <verbose value="true"/>
    </report>

</configuration>
-->

<additional xmlns:xsi="http://www.w3.org/2001/XMLSchema-instance" xsi:noNamespaceSchemaLocation="http://sumo.dlr.de/xsd/additional_file.xsd">
    <location netOffset="-690379.25,-5335653.30" convBoundary="-734.10,-3104.37,2187.43,2363.30" origBoundary="11.548225,48.117927,11.589900,48.166202" projParameter="+proj=utm +zone=32 +ellps=WGS84 +datum=WGS84 +units=m +no_defs"/>

    <poly id="10053349" type="amenity.university" color="237,199,199" fill="1" layer="-1.00" shape="634.435777,363.605539 638.086074,372.906498 642.010827,382.906447 646.565947,394.540741 657.098278,421.372698 663.307542,437.201180 654.745280,440.542171 648.551722,442.960973 640.736527,446.004290 638.096014,447.039799 624.570327,452.306701 621.969219,445.699927 619.197399,438.631284 635.363629,432.328858 625.730869,407.763336 608.621939,414.423714 598.412563,388.392598 588.353712,362.755947 605.462763,356.095506 595.829348,331.541158 579.202908,338.017482 576.444362,330.993814 573.452611,323.372679 590.079456,316.885225 602.805919,311.925310 609.625430,309.271462 612.658309,308.082153 619.327162,325.094158 630.106355,352.568480 634.435777,363.605539"/>
    <poly id="10053349#1" type="building.university" color="255,230,230" fill="1" layer="-1.00" shape="634.435777,363.605539 638.086074,372.906498 642.010827,382.906447 646.565947,394.540741 657.098278,421.372698 663.307542,437.201180 654.745280,440.542171 648.551722,442.960973 640.736527,446.004290 638.096014,447.039799 624.570327,452.306701 621.969219,445.699927 619.197399,438.631284 635.363629,432.328858 625.730869,407.763336 608.621939,414.423714 598.412563,388.392598 588.353712,362.755947 605.462763,356.095506 595.829348,331.541158 579.202908,338.017482 576.444362,330.993814 573.452611,323.372679 590.079456,316.885225 602.805919,311.925310 609.625430,309.271462 612.658309,308.082153 619.327162,325.094158 630.106355,352.568480 634.435777,363.605539"/>
    <poly id="116940811" type="building.yes" color="255,230,230" fill="1" layer="-1.00" shape="509.282660,579.921645 514.282408,578.019143 516.371449,583.462783 521.891747,597.855089 534.153865,593.179959 528.558093,578.595976 521.859936,561.126920 504.597635,567.715698 509.282660,579.921645"/>
    <poly id="119747961" type="building.yes" color="255,230,230" fill="1" layer="-1.00" shape="782.309477,523.133673 802.520686,515.431575 810.937596,537.364415 791.058510,544.932946 789.010985,539.590715 793.641627,537.820747 792.203228,534.078787 787.233455,535.970930 782.309477,523.133673"/>
    <poly id="119747961#1" type="tourism.museum" color="207,245,201" fill="1" layer="-2.00" shape="782.309477,523.133673 802.520686,515.431575 810.937596,537.364415 791.058510,544.932946 789.010985,539.590715 793.641627,537.820747 792.203228,534.078787 787.233455,535.970930 782.309477,523.133673"/>
    <poly id="119747974" type="leisure.park" color="207,245,201" fill="1" layer="-2.00" shape="772.981545,588.565806 779.825046,588.082563 948.970975,522.355818 950.763353,516.852752 911.465763,417.183021 906.322179,414.251654 730.071013,482.868716 772.981545,588.565806"/>
    <poly id="119748207" type="leisure.park" color="207,245,201" fill="1" layer="-2.00" shape="729.787216,216.712413 725.745012,218.246215 674.295435,237.833198 644.716978,249.094691 646.476528,253.704038 731.554521,221.310923 729.787216,216.712413"/>
    <poly id="119748208" type="leisure.park" color="207,245,201" fill="1" layer="-2.00" shape="736.199321,213.778063 783.852917,195.499958 806.457865,186.831990 808.184584,191.306782 737.926083,218.252832 736.199321,213.778063"/>
    <poly id="144291476" type="amenity.university" color="237,199,199" fill="1" layer="-1.00" shape="582.468219,663.552675 559.698699,605.659810 559.231669,605.822229 540.445369,555.272194 531.955714,539.056174 496.200386,446.817816 484.930556,417.747491 471.562138,383.288892 447.355837,320.631237 586.614817,267.692468 624.049750,253.266316 666.739490,362.570938 708.583606,469.722655 714.724368,489.153765 758.149063,596.848360 582.468219,663.552675"/>
    <poly id="144291498" type="amenity.parking" color="184,184,179" fill="1" layer="-1.00" shape="735.029374,377.970927 750.516850,420.712120 732.980140,427.024050 717.492558,384.282906 735.029374,377.970927"/>
    <poly id="144291498#1" type="leisure.park" color="207,245,201" fill="1" layer="-2.00" shape="735.029374,377.970927 750.516850,420.712120 732.980140,427.024050 717.492558,384.282906 735.029374,377.970927"/>
    <poly id="144291499" type="leisure.park" color="207,245,201" fill="1" layer="-2.00" shape="871.870372,327.038759 847.604463,264.722087 818.853298,190.895837 648.411896,256.839494 659.657502,285.731335 676.492015,328.962325 700.081059,389.519897 701.801832,393.949954 728.832110,463.356669 754.546125,453.412856 817.915508,428.895907 865.482525,410.493282 899.276102,397.415778 883.478396,356.855583 871.870372,327.038759"/>
    <poly id="180313799" type="landuse.grass" color="194,194,130" fill="1" layer="-3.00" shape="809.243792,163.415741 781.002469,89.228517 738.529730,105.298885 725.887115,72.087794 669.915765,93.259426 659.930955,97.042453 664.551053,109.190713 630.970268,121.887360 633.448449,128.389884 602.793719,139.982825 637.480139,230.138875 649.958417,225.037248 660.994997,220.521661 651.386748,194.543931 670.008378,187.199867 680.168057,213.385202 726.461898,195.684253 771.888466,178.321827 777.189486,175.884425 782.449978,173.545807 809.243792,163.415741"/>
    <poly id="19183732" type="amenity.restaurant" color="237,199,199" fill="1" layer="-1.00" shape="521.651168,247.176170 554.437000,234.174239 555.859642,237.726454 601.579090,220.706290 600.423451,216.740191 607.089840,213.769690 594.711561,180.656750 586.973783,183.825131 585.207794,178.514651 506.274426,208.633956 521.651168,247.176170"/>
    <poly id="19183732#1" type="building.yes" color="255,230,230" fill="1" layer="-1.00" shape="521.651168,247.176170 554.437000,234.174239 555.859642,237.726454 601.579090,220.706290 600.423451,216.740191 607.089840,213.769690 594.711561,180.656750 586.973783,183.825131 585.207794,178.514651 506.274426,208.633956 521.651168,247.176170"/>
    <poly id="207545958" type="building.yes" color="255,230,230" fill="1" layer="-1.00" shape="322.592976,247.542707 355.730744,233.794835 371.296638,269.372252 385.355719,263.966775 387.295682,263.174798 368.662684,216.424609 358.136792,190.016300 340.657621,197.054554 349.839999,219.768673 316.594912,232.044368 320.557172,242.278952 322.592976,247.542707"/>
    <poly id="217617656" type="building.yes" color="255,230,230" fill="1" layer="-1.00" shape="461.625741,297.086412 449.454555,301.698008 441.091918,304.856842 434.266629,286.938649 430.378238,276.728689 444.049899,271.555197 447.329016,280.164934 449.341636,285.450221 456.203865,282.853249 456.840269,284.532271 461.625741,297.086412"/>
    <poly id="217618264" type="amenity.parking" color="184,184,179" fill="1" layer="-1.00" shape="369.346259,334.973017 369.232699,329.673237 420.039941,310.306962 419.678990,315.991447 369.346259,334.973017"/>
    <poly id="223983998" type="building.yes" color="255,230,230" fill="1" layer="-1.00" shape="433.503126,430.060794 446.933091,424.756876 443.059379,415.003555 440.637169,415.968558 439.868003,414.029207 438.751347,414.470357 428.859856,418.379247 433.503126,430.060794"/>
    <poly id="223983999" type="building.residential" color="255,230,230" fill="1" layer="-1.00" shape="415.236973,437.272789 425.950943,433.035294 421.011971,420.620692 410.298353,424.847084 415.236973,437.272789"/>
    <poly id="223984003" type="building.yes" color="255,230,230" fill="1" layer="-1.00" shape="377.685966,452.107997 389.312752,447.511482 385.094917,436.912270 376.953773,440.134205 373.468114,441.508793 377.685966,452.107997"/>
    <poly id="223984004" type="building.yes" color="255,230,230" fill="1" layer="-1.00" shape="389.312752,447.511482 402.312778,442.371134 395.492105,425.209704 382.484611,430.349820 385.094917,436.912270 389.312752,447.511482"/>
    <poly id="223984005" type="building.yes" color="255,230,230" fill="1" layer="-1.00" shape="359.760672,444.867690 364.678920,457.237037 377.685966,452.107997 373.468114,441.508793 372.760673,439.727276 359.760672,444.867690"/>
    <poly id="223984007" type="building.yes" color="255,230,230" fill="1" layer="-1.00" shape="402.312778,442.371134 412.649306,438.287911 415.236973,437.272789 410.298353,424.847084 408.416331,420.111342 405.828657,421.126468 402.893681,422.285769 395.492105,425.209704 402.312778,442.371134"/>
    <poly id="22744227" type="amenity.university" color="237,199,199" fill="1" layer="-1.00" shape="737.758036,558.938781 711.896112,491.351202 687.424687,500.658030 713.286841,568.245493 737.758036,558.938781"/>
    <poly id="22744227#1" type="building.university" color="255,230,230" fill="1" layer="-1.00" shape="737.758036,558.938781 711.896112,491.351202 687.424687,500.658030 713.286841,568.245493 737.758036,558.938781"/>
    <poly id="22744228" type="amenity.university" color="237,199,199" fill="1" layer="-1.00" shape="690.882651,613.057936 679.956396,586.668880 695.862370,580.124298 706.030820,575.946978 716.957355,602.324973 690.882651,613.057936"/>
    <poly id="22744228#1" type="building.university" color="255,230,230" fill="1" layer="-1.00" shape="690.882651,613.057936 679.956396,586.668880 695.862370,580.124298 706.030820,575.946978 716.957355,602.324973 690.882651,613.057936"/>
    <poly id="22744232" type="amenity.university" color="237,199,199" fill="1" layer="-1.00" shape="557.255009,582.302477 556.923327,582.424912 556.591274,582.558461 556.361895,583.407507 555.845813,584.146842 555.121854,584.645588 554.265872,584.861773 553.014589,584.653092 552.286480,584.161480 551.766964,583.443188 551.514038,582.322135 551.676855,581.459740 552.126746,580.695941 552.997575,580.035209 553.853558,579.819024 554.729267,579.903901 555.774940,580.472876 556.551343,580.187277 553.740370,577.412015 547.236844,561.251174 547.974290,556.335833 580.912810,543.394878 590.154222,566.745645 590.998676,566.428945 594.377234,565.139921 597.558475,573.323713 593.387526,574.931174 595.124669,579.317241 561.220273,592.648636 557.255009,582.302477"/>
    <poly id="22744232#1" type="building.yes" color="255,230,230" fill="1" layer="-1.00" shape="557.255009,582.302477 556.923327,582.424912 556.591274,582.558461 556.361895,583.407507 555.845813,584.146842 555.121854,584.645588 554.265872,584.861773 553.014589,584.653092 552.286480,584.161480 551.766964,583.443188 551.514038,582.322135 551.676855,581.459740 552.126746,580.695941 552.997575,580.035209 553.853558,579.819024 554.729267,579.903901 555.774940,580.472876 556.551343,580.187277 553.740370,577.412015 547.236844,561.251174 547.974290,556.335833 580.912810,543.394878 590.154222,566.745645 590.998676,566.428945 594.377234,565.139921 597.558475,573.323713 593.387526,574.931174 595.124669,579.317241 561.220273,592.648636 557.255009,582.302477"/>
    <poly id="22744232#2" type="historic.building" color="128,255,128" fill="1" layer="-1.00" shape="557.255009,582.302477 556.923327,582.424912 556.591274,582.558461 556.361895,583.407507 555.845813,584.146842 555.121854,584.645588 554.265872,584.861773 553.014589,584.653092 552.286480,584.161480 551.766964,583.443188 551.514038,582.322135 551.676855,581.459740 552.126746,580.695941 552.997575,580.035209 553.853558,579.819024 554.729267,579.903901 555.774940,580.472876 556.551343,580.187277 553.740370,577.412015 547.236844,561.251174 547.974290,556.335833 580.912810,543.394878 590.154222,566.745645 590.998676,566.428945 594.377234,565.139921 597.558475,573.323713 593.387526,574.931174 595.124669,579.317241 561.220273,592.648636 557.255009,582.302477"/>
    <poly id="254151449" type="building.yes" color="255,230,230" fill="1" layer="-1.00" shape="391.144788,557.497867 385.274170,542.660105 396.193916,538.273669 402.181300,553.404616 391.144788,557.497867"/>
    <poly id="254151450" type="building.yes" color="255,230,230" fill="1" layer="-1.00" shape="391.345019,526.284884 396.193916,538.273669 385.274170,542.660105 382.721494,543.520641 377.708218,531.548636 378.812960,531.240591 391.345019,526.284884"/>
    <poly id="254151451" type="building.yes" color="255,230,230" fill="1" layer="-1.00" shape="395.552566,568.648606 406.664934,564.735914 414.258615,583.936985 399.026758,589.926271 394.622637,577.774305 398.709857,576.219540 395.552566,568.648606"/>
    <poly id="259759830" type="landuse.residential" color="235,235,227" fill="1" layer="-3.00" shape="729.410646,519.996614 780.811251,645.426007 843.904231,799.385031 842.472715,807.014152 835.427203,809.760272 832.814263,803.075096 735.945800,840.746366 634.975611,880.006679 630.336740,881.809860 647.244777,925.009984 640.652390,927.571203 638.773951,928.309509 640.406436,932.480709 668.700067,1004.777816 672.207416,1003.415272 676.288109,1001.827121 693.023204,1044.609986 800.131305,1002.952610 896.137208,965.631977 893.187927,958.101050 900.700682,955.181501 906.056465,954.648651 952.323966,1066.812940 997.052027,1193.100872 1002.313795,1236.502042 1007.594628,1297.561026 1018.204588,1304.180320 1023.875888,1310.000057 1031.885979,1374.466077 952.520996,1392.514412 879.043533,1416.835689 784.733656,1443.509595 675.864644,1485.530719 652.219889,1498.736971 589.422654,1514.295418 456.818730,1542.242978 227.450656,1584.522390 100.016715,1605.329511 65.193501,1442.719278 55.770670,1391.514893 8.636035,1349.445904 -113.912509,1239.701448 -204.025486,1157.563340 -294.748288,1078.911218 -450.863043,944.794255 -275.712982,734.850622 -152.830115,594.690060 -151.627299,592.104353 -133.632620,559.002562 -115.633501,510.113201 -73.694503,313.288602 -53.692859,225.747623 -35.513185,193.397660 4.428655,190.176971 291.866518,86.503530 340.824026,67.953721 360.319497,111.194459 413.342050,241.936477 592.400857,170.477114 729.410646,519.996614"/>
    <poly id="259759831" type="landuse.residential" color="235,235,227" fill="1" layer="-3.00" shape="1007.676830,-189.429806 757.052118,-104.442569 728.541724,-128.537708 695.020432,-123.460712 683.164669,-110.939509 679.484709,-104.876380 676.779759,-100.805613 674.968563,-94.958192 673.760591,-88.890347 672.643552,-79.081108 673.420060,-71.789847 674.997140,-66.619167 519.557835,-9.260043 526.623538,8.599508 592.400857,170.477114 729.410646,519.996614 780.811251,645.426007 843.904231,799.385031 842.472715,807.014152 853.988581,836.438497 867.972913,872.187200 865.400587,873.191499 869.159063,882.796681 871.621326,889.087425 874.412282,888.001435 889.013562,925.328505 900.700682,955.181501 906.056465,954.648651 952.323966,1066.812940 997.052027,1193.100872 1002.313795,1236.502042 1007.594628,1297.561026 1018.204588,1304.180320 1023.875888,1310.000057 1031.885979,1374.466077 1109.813080,1378.022107 1395.205432,1408.452500 1477.329479,1407.837435 1678.308858,1395.294648 1752.533661,1374.346387 1817.471907,1352.630592 1722.302615,1004.184890 1666.998116,818.599685 1635.608209,691.630147 1623.264935,608.470134 1545.799426,353.304853 1455.165231,15.688459 1370.362590,-209.511899 1349.888583,-272.916421 1339.764629,-280.565718 1318.185453,-274.591217 1152.379449,-229.601136 1007.676830,-189.429806"/>
    <poly id="264566973" type="amenity.university" color="237,199,199" fill="1" layer="-1.00" shape="566.199465,348.597977 549.162590,355.327700 533.784516,316.618440 550.821481,309.888669 562.490278,339.272853 566.199465,348.597977"/>
    <poly id="264566973#1" type="building.university" color="255,230,230" fill="1" layer="-1.00" shape="566.199465,348.597977 549.162590,355.327700 533.784516,316.618440 550.821481,309.888669 562.490278,339.272853 566.199465,348.597977"/>
    <poly id="278719738" type="building.yes" color="255,230,230" fill="1" layer="-1.00" shape="406.584346,204.805924 404.239850,198.530492 408.258172,197.040175 410.610473,203.304743 406.584346,204.805924"/>
    <poly id="284264273" type="natural.tree_row" color="140,196,107" fill="0" layer="-4.00" shape="555.427012,315.115951 575.577923,367.858878"/>
    <poly id="284264274" type="amenity.parking" color="184,184,179" fill="1" layer="-1.00" shape="565.845543,320.403861 585.023340,313.111503 576.600337,291.100989 557.422481,298.393377 565.845543,320.403861"/>
    <poly id="284264275" type="amenity.parking" color="184,184,179" fill="1" layer="-1.00" shape="647.012295,342.630310 639.107670,322.272538 638.202432,319.950325 622.513355,326.001676 631.323267,348.681636 647.012295,342.630310"/>
    <poly id="31095009" type="amenity.university" color="237,199,199" fill="1" layer="-1.00" shape="620.686204,487.446560 649.461335,476.347315 648.789684,474.611458 638.096014,447.039799 640.736527,446.004290 648.551722,442.960973 659.073536,470.104121 659.313410,470.724071 680.296565,462.646798 682.996949,461.602183 672.152418,433.647124 663.307542,437.201180 657.098278,421.372698 659.172474,420.574173 684.689082,410.745834 708.126273,471.153759 689.028384,478.515112 686.584584,479.457038 665.337094,487.647839 655.871309,491.292414 626.561147,502.585142 620.686204,487.446560"/>
    <poly id="31095009#1" type="building.university" color="255,230,230" fill="1" layer="-1.00" shape="620.686204,487.446560 649.461335,476.347315 648.789684,474.611458 638.096014,447.039799 640.736527,446.004290 648.551722,442.960973 659.073536,470.104121 659.313410,470.724071 680.296565,462.646798 682.996949,461.602183 672.152418,433.647124 663.307542,437.201180 657.098278,421.372698 659.172474,420.574173 684.689082,410.745834 708.126273,471.153759 689.028384,478.515112 686.584584,479.457038 665.337094,487.647839 655.871309,491.292414 626.561147,502.585142 620.686204,487.446560"/>
    <poly id="31095011" type="amenity.university" color="237,199,199" fill="1" layer="-1.00" shape="569.558203,472.075868 572.148005,481.697399 569.897276,483.547033 558.713552,492.708541 537.357858,440.159059 523.260579,405.464582 511.316574,376.071290 528.231698,368.747714 552.698270,430.936053 554.043497,434.352174 569.558203,472.075868"/>
    <poly id="31095011#1" type="building.university" color="255,230,230" fill="1" layer="-1.00" shape="569.558203,472.075868 572.148005,481.697399 569.897276,483.547033 558.713552,492.708541 537.357858,440.159059 523.260579,405.464582 511.316574,376.071290 528.231698,368.747714 552.698270,430.936053 554.043497,434.352174 569.558203,472.075868"/>
    <poly id="31095012" type="amenity.university" color="237,199,199" fill="1" layer="-1.00" shape="538.057721,367.696195 540.488044,370.725756 543.879182,372.630293 547.733939,373.137306 551.503445,372.183962 554.647394,369.896855 556.715112,366.616966 557.400956,362.801382 556.619430,359.003550 554.479149,355.761148 538.057721,367.696195"/>
    <poly id="31095012#1" type="building.university" color="255,230,230" fill="1" layer="-1.00" shape="538.057721,367.696195 540.488044,370.725756 543.879182,372.630293 547.733939,373.137306 551.503445,372.183962 554.647394,369.896855 556.715112,366.616966 557.400956,362.801382 556.619430,359.003550 554.479149,355.761148 538.057721,367.696195"/>
    <poly id="31095013" type="building.yes" color="255,230,230" fill="1" layer="-1.00" shape="549.162590,355.327700 533.784516,316.618440 490.777673,333.596135 499.411004,355.335379 502.482132,354.113913 509.226724,371.094926 549.162590,355.327700"/>
    <poly id="317902066" type="leisure.park" color="207,245,201" fill="1" layer="-2.00" shape="321.364234,27.429010 340.824026,67.953721 360.319497,111.194459 413.342050,241.936477 592.400857,170.477114 526.623538,8.599508 519.557835,-9.260043 488.316655,-91.422907 439.690852,-73.052327 430.934252,-69.706326 443.302204,-36.905719 430.737652,-32.129155 424.198977,-29.643722 425.875858,-25.226362 414.461172,-20.989948 403.687243,-16.988032 401.921444,-21.641998 394.697800,-18.934614 380.341272,-13.561296 372.506849,-34.283417 359.634103,-68.257792 296.717413,-45.567411 321.364234,27.429010"/>
    <poly id="35395714" type="building.yes" color="255,230,230" fill="1" layer="-1.00" shape="418.001972,308.681306 410.616469,289.476081 406.902868,279.828274 350.037954,301.551581 361.129476,330.415363 418.001972,308.681306"/>
    <poly id="35395714#1" type="historic.building" color="128,255,128" fill="1" layer="-1.00" shape="418.001972,308.681306 410.616469,289.476081 406.902868,279.828274 350.037954,301.551581 361.129476,330.415363 418.001972,308.681306"/>
    <poly id="371671521" type="building.yes" color="255,230,230" fill="1" layer="-1.00" shape="417.663487,366.569909 408.478805,370.046258 410.609323,375.591365 419.795112,372.081679 417.663487,366.569909"/>
    <poly id="371671530" type="building.yes" color="255,230,230" fill="1" layer="-1.00" shape="425.979341,369.717949 420.324644,355.098764 414.140031,357.473613 417.663487,366.569909 419.795112,372.081679 425.979341,369.717949"/>
    <poly id="373507643" type="amenity.shelter" color="237,199,199" fill="1" layer="-1.00" shape="477.654448,294.016617 483.163133,292.042056 483.722169,293.584987 478.213485,295.559547 477.654448,294.016617"/>
    <poly id="40526211" type="building.yes" color="255,230,230" fill="1" layer="-1.00" shape="499.903752,583.202203 509.282660,579.921645 504.597635,567.715698 495.280836,571.365498 499.903752,583.202203"/>
    <poly id="407698328" type="building.garages" color="255,230,230" fill="1" layer="-1.00" shape="382.015059,581.203212 386.865276,579.317865 385.755812,576.643972 386.262249,576.416098 380.749050,562.246703 375.295312,564.145297 382.015059,581.203212"/>
    <poly id="42918168" type="building.university" color="255,230,230" fill="1" layer="-1.00" shape="665.058316,464.351660 659.097148,449.121146 671.619251,444.254703 677.572956,459.484983 665.058316,464.351660"/>
    <poly id="42918170" type="building.university" color="255,230,230" fill="1" layer="-1.00" shape="527.835283,478.281586 525.241519,471.675107 535.780384,467.554356 538.373767,474.171953 527.835283,478.281586"/>
    <poly id="43035346" type="amenity.university" color="237,199,199" fill="1" layer="-1.00" shape="713.286841,568.245493 724.126036,596.567647 727.091017,604.310377 751.562090,595.003727 737.758036,558.938781 713.286841,568.245493"/>
    <poly id="43035346#1" type="building.university" color="255,230,230" fill="1" layer="-1.00" shape="713.286841,568.245493 724.126036,596.567647 727.091017,604.310377 751.562090,595.003727 737.758036,558.938781 713.286841,568.245493"/>
    <poly id="439589182" type="amenity.bicycle_parking" color="237,199,199" fill="1" layer="-1.00" shape="636.802055,212.770693 638.241920,212.240242 643.830831,227.480525 642.398779,228.000109 636.802055,212.770693"/>
    <poly id="439592360" type="amenity.parking" color="184,184,179" fill="1" layer="-1.00" shape="649.659941,396.869332 655.122846,410.748053 671.267258,404.433866 665.804755,390.544015 649.659941,396.869332"/>
    <poly id="450114328" type="building.yes" color="255,230,230" fill="1" layer="-1.00" shape="395.187572,340.174377 397.163957,339.405872 410.168697,334.354694 414.591897,345.494824 416.463150,350.107820 414.624310,354.563626 407.038976,357.859705 405.843038,357.552771 404.553471,354.027290 402.689391,354.777287 400.855431,355.517164 395.187572,340.174377"/>
    <poly id="450114329" type="building.yes" color="255,230,230" fill="1" layer="-1.00" shape="355.073351,372.236340 348.751046,358.206896 373.870163,348.452937 376.223598,347.541241 382.135011,362.280201 379.345769,363.310867 359.747109,370.511965 355.073351,372.236340"/>
    <poly id="450114335" type="building.yes" color="255,230,230" fill="1" layer="-1.00" shape="382.135011,362.280201 376.223598,347.541241 378.863729,346.516725 395.187572,340.174377 400.855431,355.517164 384.395857,361.465554 382.135011,362.280201"/>
    <poly id="450146359" type="building.garages" color="255,230,230" fill="1" layer="-1.00" shape="398.490204,402.523624 411.530100,397.084219 417.764115,394.566380 415.817356,389.539199 396.485788,397.438897 398.490204,402.523624"/>
    <poly id="450669422" type="natural.tree_row" color="140,196,107" fill="0" layer="-4.00" shape="640.347458,226.551944 615.570906,163.384928"/>
    <poly id="457324387" type="man_made.courtyard" color="255,230,230" fill="1" layer="-1.00" shape="642.010827,382.906447 638.086074,372.906498 634.435777,363.605539 651.785109,356.886504 655.584893,366.615262 659.341515,376.075554 642.010827,382.906447"/>
    <poly id="457324389" type="amenity.bicycle_parking" color="237,199,199" fill="1" layer="-1.00" shape="666.982397,347.725756 665.247309,348.402098 654.246254,320.664389 655.981721,319.976929 666.982397,347.725756"/>
    <poly id="457363557" type="building.university" color="255,230,230" fill="1" layer="-1.00" shape="669.325347,369.188348 674.922128,383.516605 648.656139,393.709368 646.565947,394.540741 642.010827,382.906447 638.086074,372.906498 634.435777,363.605539 630.106355,352.568480 658.537073,341.546744 663.687625,354.747470 665.431635,354.026921 668.601379,361.887708 671.262351,368.485377 669.325347,369.188348"/>
    <poly id="457363561" type="building.university" color="255,230,230" fill="1" layer="-1.00" shape="643.934950,377.463333 655.105494,373.163622 652.932067,367.572472 650.780204,362.004296 639.609642,366.304015 641.672998,371.624456 643.934950,377.463333"/>
    <poly id="4647135" type="building.yes" color="255,230,230" fill="1" layer="-1.00" shape="724.791312,368.850230 720.478409,357.324097 777.452643,336.153244 832.935030,315.522722 837.062926,326.564341 851.749718,321.103101 842.461234,296.281665 833.158901,271.426409 818.328838,276.938542 822.703357,288.622581 710.653502,330.270886 706.449875,319.037698 691.303247,324.673079 709.901372,374.382875 724.791312,368.850230"/>
    <poly id="4647135#1" type="tourism.museum" color="207,245,201" fill="1" layer="-2.00" shape="724.791312,368.850230 720.478409,357.324097 777.452643,336.153244 832.935030,315.522722 837.062926,326.564341 851.749718,321.103101 842.461234,296.281665 833.158901,271.426409 818.328838,276.938542 822.703357,288.622581 710.653502,330.270886 706.449875,319.037698 691.303247,324.673079 709.901372,374.382875 724.791312,368.850230"/>
    <poly id="50299584" type="amenity.university" color="237,199,199" fill="1" layer="-1.00" shape="580.461188,520.359974 531.955714,539.056174 496.200386,446.817816 513.095636,440.305746 525.241519,471.675107 527.835283,478.281586 539.960532,509.594670 571.563263,497.421242 580.461188,520.359974"/>
    <poly id="50299584#1" type="building.university" color="255,230,230" fill="1" layer="-1.00" shape="580.461188,520.359974 531.955714,539.056174 496.200386,446.817816 513.095636,440.305746 525.241519,471.675107 527.835283,478.281586 539.960532,509.594670 571.563263,497.421242 580.461188,520.359974"/>
    <poly id="50299720" type="amenity.university" color="237,199,199" fill="1" layer="-1.00" shape="471.562138,383.288892 488.457537,376.776746 500.399897,407.560685 513.095636,440.305746 496.200386,446.817816 484.930556,417.747491 471.562138,383.288892"/>
    <poly id="50299720#1" type="building.university" color="255,230,230" fill="1" layer="-1.00" shape="471.562138,383.288892 488.457537,376.776746 500.399897,407.560685 513.095636,440.305746 496.200386,446.817816 484.930556,417.747491 471.562138,383.288892"/>
    <poly id="50299848" type="amenity.university" color="237,199,199" fill="1" layer="-1.00" shape="554.043497,434.352174 559.724238,432.127539 559.200129,429.539917 563.461953,428.781041 563.045582,424.528108 570.723283,423.371523 578.888595,423.889018 583.541733,425.012406 587.527774,426.491800 593.493691,429.772997 599.835667,435.169588 603.644872,439.936401 600.842676,442.246023 604.191848,446.296528 607.615087,451.695763 609.694374,456.093263 611.405920,461.023655 569.558203,472.075868 554.043497,434.352174"/>
    <poly id="50299848#1" type="building.university" color="255,230,230" fill="1" layer="-1.00" shape="554.043497,434.352174 559.724238,432.127539 559.200129,429.539917 563.461953,428.781041 563.045582,424.528108 570.723283,423.371523 578.888595,423.889018 583.541733,425.012406 587.527774,426.491800 593.493691,429.772997 599.835667,435.169588 603.644872,439.936401 600.842676,442.246023 604.191848,446.296528 607.615087,451.695763 609.694374,456.093263 611.405920,461.023655 569.558203,472.075868 554.043497,434.352174"/>
    <poly id="50300147" type="amenity.university" color="237,199,199" fill="1" layer="-1.00" shape="548.000569,282.880547 586.614817,267.692468 624.049750,253.266316 635.299871,280.689613 648.200875,313.964777 619.327162,325.094158 612.658309,308.082153 609.625430,309.271462 597.100212,276.999170 590.756650,279.446411 584.842964,281.730000 596.305285,311.274252 586.446961,315.072734 575.375866,286.520663 553.276772,296.341249 548.000569,282.880547"/>
    <poly id="50300147#1" type="building.university" color="255,230,230" fill="1" layer="-1.00" shape="548.000569,282.880547 586.614817,267.692468 624.049750,253.266316 635.299871,280.689613 648.200875,313.964777 619.327162,325.094158 612.658309,308.082153 609.625430,309.271462 597.100212,276.999170 590.756650,279.446411 584.842964,281.730000 596.305285,311.274252 586.446961,315.072734 575.375866,286.520663 553.276772,296.341249 548.000569,282.880547"/>