<?xml version="1.0" encoding="UTF-8"?>

<!-- generated on Fri Dec 20 14:30:10 2019 by Eclipse SUMO duarouter Version 1.4.0
<configuration xmlns:xsi="http://www.w3.org/2001/XMLSchema-instance" xsi:noNamespaceSchemaLocation="http://sumo.dlr.de/xsd/duarouterConfiguration.xsd">

    <input>
        <net-file value="/home/zhenyuli/Sumo/2019-12-20-14-30-08/osm.net.xml"/>
        <route-files value="/home/zhenyuli/Sumo/2019-12-20-14-30-08/osm.bus.trips.xml"/>
    </input>

    <output>
        <output-file value="/home/zhenyuli/Sumo/2019-12-20-14-30-08/osm.bus.trips.xml.tmp"/>
        <write-trips value="true"/>
    </output>

    <time>
        <begin value="0"/>
        <end value="3600.0"/>
    </time>

    <report>
        <no-warnings value="true"/>
        <ignore-errors value="true"/>
        <no-step-log value="true"/>
    </report>

</configuration>
-->

<routes xmlns:xsi="http://www.w3.org/2001/XMLSchema-instance" xsi:noNamespaceSchemaLocation="http://sumo.dlr.de/xsd/routes_file.xsd">
    <vType id="bus_bus" vClass="bus"/>
    <trip id="bus0" type="bus_bus" depart="0.00" departLane="best" departSpeed="max" from="-51508352#5" to="-51476080#2"/>
    <trip id="bus1" type="bus_bus" depart="156.42" departLane="best" departSpeed="max" from="376401312#0" to="-27222779#0"/>
    <trip id="bus2" type="bus_bus" depart="312.83" departLane="best" departSpeed="max" from="134941607#0" to="-344664988#0"/>
    <trip id="bus3" type="bus_bus" depart="469.25" departLane="best" departSpeed="max" from="27222779#0" to="51508352#1"/>
    <trip id="bus4" type="bus_bus" depart="625.66" departLane="best" departSpeed="max" from="134941607#0" to="362368395#11"/>
    <trip id="bus5" type="bus_bus" depart="782.08" departLane="best" departSpeed="max" from="134941607#0" to="-51476080#1"/>
    <trip id="bus6" type="bus_bus" depart="938.49" departLane="best" departSpeed="max" from="-51508352#5" to="-51476080#6"/>
    <trip id="bus7" type="bus_bus" depart="1094.91" departLane="best" from="-51476080#5" to="51508352#1"/>
    <trip id="bus8" type="bus_bus" depart="1251.32" departLane="best" departSpeed="max" from="-51508352#5" to="-51476080#4"/>
    <trip id="bus9" type="bus_bus" depart="1407.74" departLane="best" departSpeed="max" from="-40317921" to="-27222779#0"/>
    <trip id="bus10" type="bus_bus" depart="1564.15" departLane="best" departSpeed="max" from="-51508352#5" to="362368395#9"/>
    <trip id="bus11" type="bus_bus" depart="1720.57" departLane="best" from="149935566#1" to="51508352#1"/>
    <trip id="bus12" type="bus_bus" depart="1876.98" departLane="best" departSpeed="max" from="-51508352#5" to="362368395#5"/>
    <trip id="bus13" type="bus_bus" depart="2033.40" departLane="best" from="-27222779#2" to="51508352#1"/>
    <trip id="bus14" type="bus_bus" depart="2189.82" departLane="best" departSpeed="max" from="-51508352#5" to="-27222779#0"/>
    <trip id="bus15" type="bus_bus" depart="2346.23" departLane="best" from="51476080#1" to="51508352#1"/>
    <trip id="bus16" type="bus_bus" depart="2502.65" departLane="best" departSpeed="max" from="-51508352#5" to="51476080#5"/>
    <trip id="bus17" type="bus_bus" depart="2659.06" departLane="best" departSpeed="max" from="134941607#0" to="362368395#11"/>
    <trip id="bus18" type="bus_bus" depart="2815.48" departLane="best" from="-51508352#0" to="51508352#1"/>
    <trip id="bus19" type="bus_bus" depart="2971.89" departLane="best" from="51508352#0" to="51508352#1"/>
    <trip id="bus20" type="bus_bus" depart="3128.31" departLane="best" departSpeed="max" from="-51508352#5" to="4645392"/>
    <trip id="bus21" type="bus_bus" depart="3284.72" departLane="best" from="-51476080#0" to="51508352#1"/>
    <trip id="bus23" type="bus_bus" depart="3597.55" departLane="best" departSpeed="max" from="27222779#0" to="51508352#1"/>
</routes>
