<net xmlns:xsi="http://www.w3.org/2001/XMLSchema-instance" junctionCornerDetail="5" limitTurnSpeed="5.50" version="1.3" xsi:noNamespaceSchemaLocation="http://sumo.dlr.de/xsd/net_file.xsd">

    <location convBoundary="0.00,0.00,995.82,1158.96" netOffset="-690379.25,-5335653.30" origBoundary="11.548225,48.117927,11.589900,48.166202" projParameter="+proj=utm +zone=32 +ellps=WGS84 +datum=WGS84 +units=m +no_defs" />

    <type allow="pedestrian" id="highway.bridleway" numLanes="1" oneway="1" priority="1" speed="2.78" width="2.00" />
    <type allow="bus" id="highway.bus_guideway" numLanes="1" oneway="1" priority="1" speed="27.78" />
    <type allow="bicycle" id="highway.cycleway" numLanes="1" oneway="0" priority="1" speed="8.33" width="1.00" />
    <type allow="pedestrian" id="highway.footway" numLanes="1" oneway="1" priority="1" speed="2.78" width="2.00" />
    <type allow="army" id="highway.ford" numLanes="1" oneway="0" priority="1" speed="2.78" />
    <type disallow="tram rail_urban rail rail_electric rail_fast ship" id="highway.living_street" numLanes="1" oneway="0" priority="2" speed="2.78" />
    <type allow="private emergency authority army vip passenger hov taxi bus coach delivery truck trailer motorcycle evehicle custom1 custom2" id="highway.motorway" numLanes="2" oneway="1" priority="14" speed="39.44" />
    <type allow="private emergency authority army vip passenger hov taxi bus coach delivery truck trailer motorcycle evehicle custom1 custom2" id="highway.motorway_link" numLanes="1" oneway="1" priority="9" speed="22.22" />
    <type allow="pedestrian bicycle" id="highway.path" numLanes="1" oneway="1" priority="1" speed="2.78" width="2.00" />
    <type allow="pedestrian" id="highway.pedestrian" numLanes="1" oneway="1" priority="1" speed="2.78" width="2.00" />
    <type disallow="tram rail_urban rail rail_electric rail_fast ship" id="highway.primary" numLanes="2" oneway="0" priority="12" speed="27.78" />
    <type disallow="tram rail_urban rail rail_electric rail_fast ship" id="highway.primary_link" numLanes="1" oneway="0" priority="7" speed="22.22" />
    <type allow="vip" id="highway.raceway" numLanes="2" oneway="0" priority="15" speed="83.33" />
    <type disallow="tram rail_urban rail rail_electric rail_fast ship" id="highway.residential" numLanes="1" oneway="0" priority="3" speed="13.89" />
    <type disallow="tram rail_urban rail rail_electric rail_fast ship" id="highway.secondary" numLanes="1" oneway="0" priority="11" speed="27.78" />
    <type disallow="tram rail_urban rail rail_electric rail_fast ship" id="highway.secondary_link" numLanes="1" oneway="0" priority="6" speed="22.22" />
    <type allow="pedestrian delivery bicycle" id="highway.service" numLanes="1" oneway="0" priority="1" speed="5.56" />
    <type allow="pedestrian" id="highway.stairs" numLanes="1" oneway="1" priority="1" speed="1.39" width="2.00" />
    <type allow="pedestrian" id="highway.step" numLanes="1" oneway="1" priority="1" speed="1.39" width="2.00" />
    <type allow="pedestrian" id="highway.steps" numLanes="1" oneway="1" priority="1" speed="1.39" width="2.00" />
    <type disallow="tram rail_urban rail rail_electric rail_fast ship" id="highway.tertiary" numLanes="1" oneway="0" priority="10" speed="22.22" />
    <type disallow="tram rail_urban rail rail_electric rail_fast ship" id="highway.tertiary_link" numLanes="1" oneway="0" priority="5" speed="22.22" />
    <type disallow="tram rail_urban rail rail_electric rail_fast ship" id="highway.track" numLanes="1" oneway="0" priority="1" speed="5.56" />
    <type disallow="pedestrian bicycle tram rail_urban rail rail_electric rail_fast ship" id="highway.trunk" numLanes="2" oneway="0" priority="13" speed="27.78" />
    <type disallow="pedestrian bicycle tram rail_urban rail rail_electric rail_fast ship" id="highway.trunk_link" numLanes="1" oneway="0" priority="8" speed="22.22" />
    <type disallow="tram rail_urban rail rail_electric rail_fast ship" id="highway.unclassified" numLanes="1" oneway="0" priority="4" speed="13.89" />
    <type disallow="tram rail_urban rail rail_electric rail_fast ship" id="highway.unsurfaced" numLanes="1" oneway="0" priority="1" speed="8.33" />
    <type allow="rail_fast" id="railway.highspeed" numLanes="1" oneway="1" priority="21" speed="69.44" />
    <type allow="rail_urban" id="railway.light_rail" numLanes="1" oneway="1" priority="19" speed="27.78" />
    <type allow="rail" id="railway.preserved" numLanes="1" oneway="1" priority="16" speed="27.78" />
    <type allow="rail" id="railway.rail" numLanes="1" oneway="1" priority="20" speed="44.44" />
    <type allow="rail_urban" id="railway.subway" numLanes="1" oneway="1" priority="18" speed="27.78" />
    <type allow="tram" id="railway.tram" numLanes="1" oneway="1" priority="17" speed="13.89" />

    <edge function="internal" id=":130355233_0">
        <lane allow="pedestrian delivery bicycle" id=":130355233_0_0" index="0" length="5.02" shape="770.89,360.68 766.22,362.49" speed="5.56" />
    </edge>
    <edge function="internal" id=":130355233_1">
        <lane allow="pedestrian delivery bicycle" id=":130355233_1_0" index="0" length="4.67" shape="770.89,360.68 769.49,360.36 768.83,359.75 768.92,358.86 769.75,357.69" speed="3.65" />
    </edge>
    <edge function="internal" id=":130355233_2">
        <lane allow="pedestrian delivery bicycle" id=":130355233_2_0" index="0" length="5.05" shape="765.04,359.51 769.75,357.69" speed="5.56" />
    </edge>
    <edge function="internal" id=":130355233_3">
        <lane allow="pedestrian delivery bicycle" id=":130355233_3_0" index="0" length="4.67" shape="765.04,359.51 766.45,359.82 767.12,360.42 767.04,361.31 766.22,362.49" speed="3.65" />
    </edge>
    <edge function="internal" id=":130358856_0">
        <lane allow="pedestrian delivery bicycle" id=":130358856_0_0" index="0" length="7.11" shape="709.53,384.83 702.86,387.30" speed="5.56" />
    </edge>
    <edge function="internal" id=":130358856_1">
        <lane allow="pedestrian delivery bicycle" id=":130358856_1_0" index="0" length="2.34" shape="709.53,384.83 708.12,384.53 707.45,383.93" speed="3.65" />
    </edge>
    <edge function="internal" id=":130358856_4">
        <lane allow="pedestrian delivery bicycle" id=":130358856_4_0" index="0" length="2.34" shape="707.45,383.93 707.53,383.04 708.36,381.85" speed="3.65" />
    </edge>
    <edge function="internal" id=":130358856_2">
        <lane allow="pedestrian delivery bicycle" id=":130358856_2_0" index="0" length="7.01" shape="701.79,384.29 708.36,381.85" speed="5.56" />
    </edge>
    <edge function="internal" id=":130358856_3">
        <lane allow="pedestrian delivery bicycle" id=":130358856_3_0" index="0" length="2.34" shape="701.79,384.29 703.19,384.64 703.83,385.26" speed="3.65" />
    </edge>
    <edge function="internal" id=":130358856_5">
        <lane allow="pedestrian delivery bicycle" id=":130358856_5_0" index="0" length="2.34" shape="703.83,385.26 703.72,386.14 702.86,387.30" speed="3.65" />
    </edge>
    <edge function="internal" id=":130360326_0">
        <lane disallow="tram rail_urban rail rail_electric rail_fast ship" id=":130360326_0_0" index="0" length="5.01" shape="725.91,203.36 730.61,201.59" speed="13.89" />
        <lane disallow="tram rail_urban rail rail_electric rail_fast ship" id=":130360326_0_1" index="1" length="5.01" shape="727.05,206.36 731.73,204.59" speed="13.89" />
    </edge>
    <edge function="internal" id=":1326631454_0">
        <lane allow="pedestrian delivery bicycle" id=":1326631454_0_0" index="0" length="5.04" shape="725.42,381.96 724.78,380.73 723.90,380.02 722.78,379.82 721.43,380.14" speed="5.00" />
    </edge>
    <edge function="internal" id=":1326631454_1">
        <lane allow="pedestrian delivery bicycle" id=":1326631454_1_0" index="0" length="10.17" shape="725.42,381.96 724.85,379.20 725.26,376.90 726.64,375.07 729.01,373.72" speed="5.56" />
    </edge>
    <edge function="internal" id=":1326631454_2">
        <lane allow="pedestrian delivery bicycle" id=":1326631454_2_0" index="0" length="4.67" shape="725.42,381.96 725.78,380.56 726.40,379.92 727.28,380.03 728.44,380.89" speed="3.65" />
    </edge>
    <edge function="internal" id=":1326631454_3">
        <lane allow="pedestrian delivery bicycle" id=":1326631454_3_0" index="0" length="5.14" shape="730.18,376.69 729.01,377.37 728.33,378.30 728.14,379.47 728.44,380.89" speed="5.16" />
    </edge>
    <edge function="internal" id=":1326631454_4">
        <lane allow="pedestrian delivery bicycle" id=":1326631454_4_0" index="0" length="9.40" shape="730.18,376.69 721.43,380.14" speed="5.56" />
    </edge>
    <edge function="internal" id=":1326631454_5">
        <lane allow="pedestrian delivery bicycle" id=":1326631454_5_0" index="0" length="4.67" shape="730.18,376.69 728.77,376.39 728.11,375.79 728.18,374.90 729.01,373.72" speed="3.65" />
    </edge>
    <edge function="internal" id=":1326631454_6">
        <lane allow="pedestrian delivery bicycle" id=":1326631454_6_0" index="0" length="9.40" shape="720.26,377.16 729.01,373.72" speed="5.56" />
    </edge>
    <edge function="internal" id=":1326631454_7">
        <lane allow="pedestrian delivery bicycle" id=":1326631454_7_0" index="0" length="10.33" shape="720.26,377.16 723.03,376.51 725.31,376.91 727.12,378.37 728.44,380.89" speed="5.56" />
    </edge>
    <edge function="internal" id=":1326631454_8">
        <lane allow="pedestrian delivery bicycle" id=":1326631454_8_0" index="0" length="4.67" shape="720.26,377.16 721.67,377.47 722.33,378.06 722.26,378.96 721.43,380.14" speed="3.65" />
    </edge>
    <edge function="internal" id=":1326631482_0">
        <lane disallow="tram rail_urban rail rail_electric rail_fast ship" id=":1326631482_0_0" index="0" length="9.42" shape="687.50,396.42 684.05,387.65" speed="13.89" />
    </edge>
    <edge function="internal" id=":1326631482_1">
        <lane allow="pedestrian delivery bicycle" id=":1326631482_1_0" index="0" length="5.04" shape="687.50,396.42 686.86,393.75 687.25,391.48" speed="6.92" />
    </edge>
    <edge function="internal" id=":1326631482_2">
        <lane disallow="tram rail_urban rail rail_electric rail_fast ship" id=":1326631482_2_0" index="0" length="2.34" shape="687.50,396.42 687.80,395.01 688.40,394.35" speed="3.65" />
    </edge>
    <edge function="internal" id=":1326631482_9">
        <lane allow="pedestrian delivery bicycle" id=":1326631482_9_0" index="0" length="5.13" shape="687.25,391.48 688.65,389.63 691.07,388.20" speed="6.92" />
    </edge>
    <edge function="internal" id=":1326631482_10">
        <lane disallow="tram rail_urban rail rail_electric rail_fast ship" id=":1326631482_10_0" index="0" length="2.34" shape="688.40,394.35 689.29,394.42 690.47,395.24" speed="3.65" />
    </edge>
    <edge function="internal" id=":1326631482_3">
        <lane disallow="tram rail_urban rail rail_electric rail_fast ship" id=":1326631482_3_0" index="0" length="5.10" shape="692.31,391.15 691.08,391.87 690.37,392.79 690.16,393.92 690.47,395.24" speed="5.11" />
    </edge>
    <edge function="internal" id=":1326631482_4">
        <lane disallow="tram rail_urban rail rail_electric rail_fast ship" id=":1326631482_4_0" index="0" length="10.29" shape="692.31,391.15 689.57,391.86 687.28,391.52 685.44,390.12 684.05,387.65" speed="6.84" />
    </edge>
    <edge function="internal" id=":1326631482_5">
        <lane allow="pedestrian delivery bicycle" id=":1326631482_5_0" index="0" length="4.67" shape="692.31,391.15 690.89,390.88 690.21,390.29 690.27,389.40 691.07,388.20" speed="3.65" />
    </edge>
    <edge function="internal" id=":1326631482_6">
        <lane allow="pedestrian delivery bicycle" id=":1326631482_6_0" index="0" length="5.03" shape="687.03,386.49 687.71,387.69 688.61,388.38 689.73,388.55 691.07,388.20" speed="5.01" />
    </edge>
    <edge function="internal" id=":1326631482_7">
        <lane disallow="tram rail_urban rail rail_electric rail_fast ship" id=":1326631482_7_0" index="0" length="9.41" shape="687.03,386.49 690.47,395.24" speed="13.89" />
    </edge>
    <edge function="internal" id=":1326631482_8">
        <lane disallow="tram rail_urban rail rail_electric rail_fast ship" id=":1326631482_8_0" index="0" length="2.34" shape="687.03,386.49 686.72,387.90 686.12,388.56" speed="3.65" />
    </edge>
    <edge function="internal" id=":1326631482_11">
        <lane disallow="tram rail_urban rail rail_electric rail_fast ship" id=":1326631482_11_0" index="0" length="2.34" shape="686.12,388.56 685.23,388.48 684.05,387.65" speed="3.65" />
    </edge>
    <edge function="internal" id=":1326631495_0">
        <lane allow="pedestrian delivery bicycle" id=":1326631495_0_0" index="0" length="4.67" shape="881.75,316.76 883.14,317.12 883.78,317.75 883.67,318.63 882.80,319.78" speed="3.65" />
    </edge>
    <edge function="internal" id=":1326631557_0">
        <lane allow="pedestrian delivery bicycle" id=":1326631557_0_0" index="0" length="4.67" shape="740.95,416.22 740.60,417.62 739.98,418.26 739.09,418.15 737.93,417.29" speed="3.65" />
    </edge>
    <edge function="internal" id=":1344355525_0">
        <lane allow="pedestrian delivery bicycle" id=":1344355525_0_0" index="0" length="4.67" shape="780.53,348.19 780.83,346.78 781.43,346.12 782.32,346.19 783.50,347.01" speed="3.65" />
    </edge>
    <edge function="internal" id=":1344355527_0">
        <lane allow="pedestrian delivery bicycle" id=":1344355527_0_0" index="0" length="9.34" shape="789.36,353.69 780.61,356.96" speed="5.56" />
    </edge>
    <edge function="internal" id=":1344355527_1">
        <lane allow="pedestrian delivery bicycle" id=":1344355527_1_0" index="0" length="10.13" shape="789.36,353.69 786.68,354.25 784.43,353.82 782.62,352.39 781.23,349.96" speed="5.56" />
    </edge>
    <edge function="internal" id=":1344355527_2">
        <lane allow="pedestrian delivery bicycle" id=":1344355527_2_0" index="0" length="4.67" shape="789.36,353.69 787.96,353.35 787.31,352.74 787.41,351.85 788.26,350.68" speed="3.65" />
    </edge>
    <edge function="internal" id=":1344355527_3">
        <lane allow="pedestrian delivery bicycle" id=":1344355527_3_0" index="0" length="5.08" shape="784.21,348.77 784.90,350.00 785.81,350.73 786.93,350.96 788.26,350.68" speed="5.12" />
    </edge>
    <edge function="internal" id=":1344355527_4">
        <lane allow="pedestrian delivery bicycle" id=":1344355527_4_0" index="0" length="10.23" shape="784.21,348.77 784.87,351.50 784.49,353.78 783.07,355.60 780.61,356.96" speed="5.56" />
    </edge>
    <edge function="internal" id=":1344355527_5">
        <lane allow="pedestrian delivery bicycle" id=":1344355527_5_0" index="0" length="4.67" shape="784.21,348.77 783.91,350.18 783.31,350.85 782.42,350.78 781.23,349.96" speed="3.65" />
    </edge>
    <edge function="internal" id=":1344355527_6">
        <lane allow="pedestrian delivery bicycle" id=":1344355527_6_0" index="0" length="5.02" shape="779.47,353.97 780.68,353.30 781.37,352.41 781.56,351.30 781.23,349.96" speed="5.02" />
    </edge>
    <edge function="internal" id=":1344355527_7">
        <lane allow="pedestrian delivery bicycle" id=":1344355527_7_0" index="0" length="9.38" shape="779.47,353.97 788.26,350.68" speed="5.56" />
    </edge>
    <edge function="internal" id=":1344355527_8">
        <lane allow="pedestrian delivery bicycle" id=":1344355527_8_0" index="0" length="4.67" shape="779.47,353.97 780.88,354.29 781.54,354.90 781.45,355.79 780.61,356.96" speed="3.65" />
    </edge>
    <edge function="internal" id=":1955508_0">
        <lane disallow="tram rail_urban rail rail_electric rail_fast ship" id=":1955508_0_0" index="0" length="4.67" shape="991.22,1158.38 990.92,1159.79 990.32,1160.45 989.43,1160.37 988.25,1159.55" speed="3.65" />
    </edge>
    <edge function="internal" id=":21457468_0">
        <lane disallow="tram rail_urban rail rail_electric rail_fast ship" id=":21457468_0_0" index="0" length="8.93" shape="476.35,427.42 475.12,425.33 473.50,424.12 471.49,423.80 469.10,424.35" speed="6.53" />
    </edge>
    <edge function="internal" id=":21457468_1">
        <lane disallow="tram rail_urban rail rail_electric rail_fast ship" id=":21457468_1_0" index="0" length="11.01" shape="476.35,427.42 472.18,417.22" speed="13.89" />
    </edge>
    <edge function="internal" id=":21457468_2">
        <lane disallow="tram rail_urban rail rail_electric rail_fast ship" id=":21457468_2_0" index="0" length="2.34" shape="476.35,427.42 476.64,426.00 477.22,425.33" speed="3.65" />
    </edge>
    <edge function="internal" id=":21457468_6">
        <lane disallow="tram rail_urban rail rail_electric rail_fast ship" id=":21457468_6_0" index="0" length="2.34" shape="477.22,425.33 478.11,425.39 479.31,426.19" speed="3.65" />
    </edge>
    <edge function="internal" id=":21457468_3">
        <lane disallow="tram rail_urban rail rail_electric rail_fast ship" id=":21457468_3_0" index="0" length="10.99" shape="475.15,416.02 479.31,426.19" speed="13.89" />
    </edge>
    <edge function="internal" id=":21457468_4">
        <lane disallow="tram rail_urban rail rail_electric rail_fast ship" id=":21457468_4_0" index="0" length="4.01" shape="475.15,416.02 475.56,418.49 475.00,419.89" speed="7.25" />
    </edge>
    <edge function="internal" id=":21457468_5">
        <lane disallow="tram rail_urban rail rail_electric rail_fast ship" id=":21457468_5_0" index="0" length="2.34" shape="475.15,416.02 474.86,417.43 474.27,418.11" speed="3.65" />
    </edge>
    <edge function="internal" id=":21457468_7">
        <lane disallow="tram rail_urban rail rail_electric rail_fast ship" id=":21457468_7_0" index="0" length="7.61" shape="475.00,419.89 474.69,420.70 472.53,422.65 469.10,424.35" speed="7.25" />
    </edge>
    <edge function="internal" id=":21457468_8">
        <lane disallow="tram rail_urban rail rail_electric rail_fast ship" id=":21457468_8_0" index="0" length="2.34" shape="474.27,418.11 473.37,418.04 472.18,417.22" speed="3.65" />
    </edge>
    <edge function="internal" id=":2269137859_0">
        <lane allow="pedestrian delivery bicycle" id=":2269137859_0_0" index="0" length="5.02" shape="416.50,277.51 415.84,276.30 414.95,275.60 413.83,275.41 412.49,275.73" speed="5.02" />
    </edge>
    <edge function="internal" id=":2269137859_1">
        <lane disallow="tram rail_urban rail rail_electric rail_fast ship" id=":2269137859_1_0" index="0" length="9.40" shape="416.50,277.51 413.20,268.71" speed="13.89" />
    </edge>
    <edge function="internal" id=":2269137859_2">
        <lane disallow="tram rail_urban rail rail_electric rail_fast ship" id=":2269137859_2_0" index="0" length="2.34" shape="416.50,277.51 416.83,276.10 417.43,275.45" speed="3.65" />
    </edge>
    <edge function="internal" id=":2269137859_9">
        <lane disallow="tram rail_urban rail rail_electric rail_fast ship" id=":2269137859_9_0" index="0" length="2.34" shape="417.43,275.45 418.32,275.54 419.49,276.38" speed="3.65" />
    </edge>
    <edge function="internal" id=":2269137859_3">
        <lane disallow="tram rail_urban rail rail_electric rail_fast ship" id=":2269137859_3_0" index="0" length="9.40" shape="416.19,267.58 419.49,276.38" speed="13.89" />
    </edge>
    <edge function="internal" id=":2269137859_4">
        <lane allow="pedestrian delivery bicycle" id=":2269137859_4_0" index="0" length="5.05" shape="416.19,267.58 416.78,270.28 416.36,272.53" speed="6.90" />
    </edge>
    <edge function="internal" id=":2269137859_5">
        <lane disallow="tram rail_urban rail rail_electric rail_fast ship" id=":2269137859_5_0" index="0" length="2.34" shape="416.19,267.58 415.86,268.99 415.26,269.64" speed="3.65" />
    </edge>
    <edge function="internal" id=":2269137859_10">
        <lane allow="pedestrian delivery bicycle" id=":2269137859_10_0" index="0" length="5.11" shape="416.36,272.53 414.93,274.35 412.49,275.73" speed="6.90" />
    </edge>
    <edge function="internal" id=":2269137859_11">
        <lane disallow="tram rail_urban rail rail_electric rail_fast ship" id=":2269137859_11_0" index="0" length="2.34" shape="415.26,269.64 414.37,269.55 413.20,268.71" speed="3.65" />
    </edge>
    <edge function="internal" id=":2269137859_6">
        <lane disallow="tram rail_urban rail rail_electric rail_fast ship" id=":2269137859_6_0" index="0" length="5.07" shape="411.32,272.75 412.54,272.06 413.27,271.16 413.48,270.04 413.20,268.71" speed="5.10" />
    </edge>
    <edge function="internal" id=":2269137859_7">
        <lane disallow="tram rail_urban rail rail_electric rail_fast ship" id=":2269137859_7_0" index="0" length="10.24" shape="411.32,272.75 414.05,272.10 416.33,272.49 418.14,273.92 419.49,276.38" speed="6.85" />
    </edge>
    <edge function="internal" id=":2269137859_8">
        <lane allow="pedestrian delivery bicycle" id=":2269137859_8_0" index="0" length="4.67" shape="411.32,272.75 412.73,273.06 413.39,273.65 413.31,274.54 412.49,275.73" speed="3.65" />
    </edge>
    <edge function="internal" id=":2269137870_0">
        <lane allow="pedestrian delivery bicycle" id=":2269137870_0_0" index="0" length="5.01" shape="357.56,335.96 355.71,331.31" speed="5.56" />
    </edge>
    <edge function="internal" id=":2269137870_1">
        <lane allow="pedestrian delivery bicycle" id=":2269137870_1_0" index="0" length="2.34" shape="357.56,335.96 357.86,334.55 358.45,333.89" speed="3.65" />
    </edge>
    <edge function="internal" id=":2269137870_4">
        <lane allow="pedestrian delivery bicycle" id=":2269137870_4_0" index="0" length="2.34" shape="358.45,333.89 359.34,333.96 360.53,334.78" speed="3.65" />
    </edge>
    <edge function="internal" id=":2269137870_2">
        <lane allow="pedestrian delivery bicycle" id=":2269137870_2_0" index="0" length="5.00" shape="358.68,330.13 360.53,334.78" speed="5.56" />
    </edge>
    <edge function="internal" id=":2269137870_3">
        <lane allow="pedestrian delivery bicycle" id=":2269137870_3_0" index="0" length="2.34" shape="358.68,330.13 358.38,331.54 357.78,332.21" speed="3.65" />
    </edge>
    <edge function="internal" id=":2269137870_5">
        <lane allow="pedestrian delivery bicycle" id=":2269137870_5_0" index="0" length="2.34" shape="357.78,332.21 356.89,332.13 355.71,331.31" speed="3.65" />
    </edge>
    <edge function="internal" id=":2269137873_0">
        <lane disallow="tram rail_urban rail rail_electric rail_fast ship" id=":2269137873_0_0" index="0" length="5.09" shape="362.81,340.52 363.51,341.75 364.42,342.48 365.54,342.70 366.87,342.40" speed="5.10" />
    </edge>
    <edge function="internal" id=":2269137873_1">
        <lane allow="pedestrian delivery bicycle" id=":2269137873_1_0" index="0" length="4.67" shape="362.81,340.52 362.51,341.93 361.92,342.60 361.02,342.52 359.84,341.70" speed="3.65" />
    </edge>
    <edge function="internal" id=":2269137873_2">
        <lane allow="pedestrian delivery bicycle" id=":2269137873_2_0" index="0" length="5.03" shape="358.04,345.70 359.26,345.05 359.97,344.16 360.16,343.04 359.84,341.70" speed="5.01" />
    </edge>
    <edge function="internal" id=":2269137873_3">
        <lane disallow="tram rail_urban rail rail_electric rail_fast ship" id=":2269137873_3_0" index="0" length="9.43" shape="358.04,345.70 366.87,342.40" speed="13.89" />
    </edge>
    <edge function="internal" id=":2349278105_0">
        <lane allow="pedestrian bicycle" id=":2349278105_0_0" index="0" length="5.00" shape="618.38,196.73 620.21,201.38" speed="2.78" width="2.00" />
    </edge>
    <edge function="internal" id=":2349278108_0">
        <lane disallow="tram rail_urban rail rail_electric rail_fast ship" id=":2349278108_0_0" index="0" length="4.98" shape="671.27,224.11 675.93,222.33" speed="13.89" />
        <lane disallow="tram rail_urban rail rail_electric rail_fast ship" id=":2349278108_0_1" index="1" length="4.98" shape="672.43,227.10 677.07,225.32" speed="13.89" />
    </edge>
    <edge function="internal" id=":2830356233_0">
        <lane disallow="tram rail_urban rail rail_electric rail_fast ship" id=":2830356233_0_0" index="0" length="5.00" shape="418.42,282.62 416.66,277.94" speed="13.89" />
    </edge>
    <edge function="internal" id=":2830356233_1">
        <lane disallow="tram rail_urban rail rail_electric rail_fast ship" id=":2830356233_1_0" index="0" length="2.34" shape="418.42,282.62 418.74,281.21 419.35,280.56" speed="3.65" />
    </edge>
    <edge function="internal" id=":2830356233_4">
        <lane disallow="tram rail_urban rail rail_electric rail_fast ship" id=":2830356233_4_0" index="0" length="2.34" shape="419.35,280.56 420.24,280.65 421.41,281.49" speed="3.65" />
    </edge>
    <edge function="internal" id=":2830356233_2">
        <lane disallow="tram rail_urban rail rail_electric rail_fast ship" id=":2830356233_2_0" index="0" length="5.00" shape="419.65,276.81 421.41,281.49" speed="13.89" />
    </edge>
    <edge function="internal" id=":2830356233_3">
        <lane disallow="tram rail_urban rail rail_electric rail_fast ship" id=":2830356233_3_0" index="0" length="2.34" shape="419.65,276.81 419.33,278.22 418.72,278.87" speed="3.65" />
    </edge>
    <edge function="internal" id=":2830356233_5">
        <lane disallow="tram rail_urban rail rail_electric rail_fast ship" id=":2830356233_5_0" index="0" length="2.34" shape="418.72,278.87 417.83,278.78 416.66,277.94" speed="3.65" />
    </edge>
    <edge function="internal" id=":2836367309_0">
        <lane allow="pedestrian delivery bicycle" id=":2836367309_0_0" index="0" length="4.67" shape="458.16,528.91 458.50,527.51 459.12,526.86 460.01,526.96 461.17,527.81" speed="3.65" />
    </edge>
    <edge function="internal" id=":2836367310_0">
        <lane disallow="tram rail_urban rail rail_electric rail_fast ship" id=":2836367310_0_0" index="0" length="9.40" shape="480.23,570.94 471.45,574.29" speed="13.89" />
        <lane disallow="tram rail_urban rail rail_electric rail_fast ship" id=":2836367310_0_1" index="1" length="9.40" shape="479.09,567.95 470.31,571.30" speed="13.89" />
    </edge>
    <edge function="internal" id=":2836367310_2">
        <lane allow="pedestrian delivery bicycle" id=":2836367310_2_0" index="0" length="7.78" shape="479.09,567.95 476.44,568.75 474.39,568.90 472.95,568.40 472.10,567.25" speed="6.07" />
    </edge>
    <edge function="internal" id=":2836367310_3">
        <lane disallow="tram rail_urban rail rail_electric rail_fast ship" id=":2836367310_3_0" index="0" length="7.77" shape="475.10,566.14 475.21,567.55 474.44,568.89 472.81,570.13 470.31,571.30" speed="6.11" />
    </edge>
    <edge function="internal" id=":2836367310_4">
        <lane allow="pedestrian delivery bicycle" id=":2836367310_4_0" index="0" length="4.67" shape="475.10,566.14 474.77,567.54 474.16,568.19 473.27,568.10 472.10,567.25" speed="3.65" />
    </edge>
    <edge function="internal" id=":2836367323_0">
        <lane allow="pedestrian delivery bicycle" id=":2836367323_0_0" index="0" length="9.33" shape="461.36,537.92 458.25,529.14" speed="5.56" />
    </edge>
    <edge function="internal" id=":2836367323_1">
        <lane allow="pedestrian delivery bicycle" id=":2836367323_1_0" index="0" length="10.12" shape="461.36,537.92 460.84,535.22 461.31,532.98 462.77,531.20 465.23,529.89" speed="5.56" />
    </edge>
    <edge function="internal" id=":2836367323_2">
        <lane allow="pedestrian delivery bicycle" id=":2836367323_2_0" index="0" length="4.67" shape="461.36,537.92 461.73,536.53 462.35,535.89 463.24,536.01 464.39,536.88" speed="3.65" />
    </edge>
    <edge function="internal" id=":2836367323_3">
        <lane allow="pedestrian delivery bicycle" id=":2836367323_3_0" index="0" length="5.03" shape="466.33,532.90 465.10,533.55 464.37,534.43 464.13,535.54 464.39,536.88" speed="5.08" />
    </edge>
    <edge function="internal" id=":2836367323_4">
        <lane allow="pedestrian delivery bicycle" id=":2836367323_4_0" index="0" length="10.17" shape="466.33,532.90 463.60,533.48 461.34,533.04 459.56,531.60 458.25,529.14" speed="5.56" />
    </edge>
    <edge function="internal" id=":2836367323_5">
        <lane allow="pedestrian delivery bicycle" id=":2836367323_5_0" index="0" length="4.67" shape="466.33,532.90 464.93,532.56 464.27,531.95 464.38,531.06 465.23,529.89" speed="3.65" />
    </edge>
    <edge function="internal" id=":2836367323_6">
        <lane allow="pedestrian delivery bicycle" id=":2836367323_6_0" index="0" length="5.00" shape="461.25,528.04 461.90,529.25 462.78,529.96 463.89,530.18 465.23,529.89" speed="5.04" />
    </edge>
    <edge function="internal" id=":2836367323_7">
        <lane allow="pedestrian delivery bicycle" id=":2836367323_7_0" index="0" length="9.38" shape="461.25,528.04 464.39,536.88" speed="5.56" />
    </edge>
    <edge function="internal" id=":2836367323_8">
        <lane allow="pedestrian delivery bicycle" id=":2836367323_8_0" index="0" length="4.67" shape="461.25,528.04 460.91,529.44 460.30,530.09 459.41,529.99 458.25,529.14" speed="3.65" />
    </edge>
    <edge function="internal" id=":2838593983_0">
        <lane allow="pedestrian delivery bicycle" id=":2838593983_0_0" index="0" length="4.67" shape="492.04,536.61 492.39,535.21 493.00,534.56 493.89,534.67 495.05,535.53" speed="3.65" />
    </edge>
    <edge function="internal" id=":2898180074_0">
        <lane disallow="tram rail_urban rail rail_electric rail_fast ship" id=":2898180074_0_0" index="0" length="5.00" shape="598.72,251.93 603.39,250.14" speed="13.89" />
        <lane disallow="tram rail_urban rail rail_electric rail_fast ship" id=":2898180074_0_1" index="1" length="5.00" shape="599.86,254.91 604.53,253.13" speed="13.89" />
    </edge>
    <edge function="internal" id=":2898180075_0">
        <lane allow="pedestrian delivery bicycle" id=":2898180075_0_0" index="0" length="4.99" shape="594.29,225.99 589.64,227.83" speed="5.56" />
    </edge>
    <edge function="internal" id=":2898180075_1">