<?xml version="1.0" encoding="UTF-8"?>

<!-- generated on Sat Feb  8 02:33:50 2020 by Eclipse SUMO duarouter Version 1.4.0
<configuration xmlns:xsi="http://www.w3.org/2001/XMLSchema-instance" xsi:noNamespaceSchemaLocation="http://sumo.dlr.de/xsd/duarouterConfiguration.xsd">

    <input>
        <net-file value="/home/zhenyuli/Sumo/2020-02-08-02-33-49/osm.net.xml"/>
        <route-files value="/home/zhenyuli/Sumo/2020-02-08-02-33-49/osm.pedestrian.trips.xml"/>
    </input>

    <output>
        <output-file value="/home/zhenyuli/Sumo/2020-02-08-02-33-49/osm.pedestrian.rou.xml"/>
        <alternatives-output value="/home/zhenyuli/Sumo/2020-02-08-02-33-49/osm.pedestrian.rou.alt.xml"/>
    </output>

    <time>
        <begin value="0"/>
        <end value="3600.0"/>
    </time>

    <report>
        <no-warnings value="true"/>
        <ignore-errors value="true"/>
        <no-step-log value="true"/>
    </report>

</configuration>
-->

<routes xmlns:xsi="http://www.w3.org/2001/XMLSchema-instance" xsi:noNamespaceSchemaLocation="http://sumo.dlr.de/xsd/routes_file.xsd">
    <vType id="ped_pedestrian" vClass="pedestrian"/>
    <person id="ped0" type="ped_pedestrian" depart="0.00">
        <walk edges="178329461#0 236668176#6 177617884#2 177617884#1 177617884#0 236668158#4 -177612801 -177612410#4"/>
    </person>
    <person id="ped1" type="ped_pedestrian" depart="4.03">
        <walk edges="177612410#3 177612410#2 -177612803 236668158#2 236668158#1 236668158#0 107057077#7"/>
    </person>
    <person id="ped2" type="ped_pedestrian" depart="8.07">
        <walk edges="236668158#3 236668158#2 236668158#1 236668158#0 233487131#6"/>
    </person>
    <person id="ped4" type="ped_pedestrian" depart="16.14">
        <walk edges="177621056#3 177621056#2 177617880#0 177617880#1 177617880#2 236668158#4 -177612801 -177612410#5"/>
    </person>
    <person id="ped5" type="ped_pedestrian" depart="20.17">
        <walk edges="107057077#6 107057077#5 236668157#3 178127281#0 178127281#1"/>
    </person>
    <person id="ped6" type="ped_pedestrian" depart="24.21">
        <walk edges="233487131#0 236668158#5 236668158#4 233487131#4 233487131#5 233487131#6 233487131#7 236668157#0 236668157#1 178127282#1 178127282#0 178127283#4"/>
    </person>
    <person id="ped7" type="ped_pedestrian" depart="28.24">
        <walk edges="107057077#7 236668157#0 236668157#1 236668157#2 236668157#3 236668157#4 178122151#5 769039656#5 769039658 236668157#7 178127717"/>
    </person>
    <person id="ped8" type="ped_pedestrian" depart="32.27">
        <walk edges="236668176#6 236668176#5 236668176#4 236668176#3 236668176#2 236668176#1 236668158#0 236668158#1 236668158#2 -177612803 -177612410#1"/>
    </person>
    <person id="ped9" type="ped_pedestrian" depart="36.31">
        <walk edges="236668176#5 177621056#3 667794410#4 667794410#5 667794410#6 107057069 236668157#1 236668157#2"/>
    </person>
    <person id="ped10" type="ped_pedestrian" depart="40.34">
        <walk edges="177617880#2 177617880#1 177617880#0 177621056#2 177621056#3 667794410#3 667794410#2 667794410#1 107057045#0 107057045#1 107057045#2 107057045#3"/>
    </person>
    <person id="ped11" type="ped_pedestrian" depart="44.38">
        <walk edges="769039656#1 107057045#4 178122151#8 28833560#3 28833560#2 28833560#1 28833560#0 667794410#2 667794410#3 177621056#3 177621056#2 177617880#0 177617880#1"/>
    </person>
    <person id="ped12" type="ped_pedestrian" depart="48.41">
        <walk edges="-177618183"/>
    </person>
    <person id="ped13" type="ped_pedestrian" depart="52.45">
        <walk edges="394727931#0 394727931#1 394727931#2 107057077#7 236668157#0 236668157#1 236668157#2 236668157#3 236668157#4 178122151#5 178122151#6 178122151#7 178122151#8 107057045#3 178132681#1"/>
    </person>
    <person id="ped14" type="ped_pedestrian" depart="56.48">
        <walk edges="236668176#6 236668176#5 236668176#4 236668176#3 236668176#2 236668176#1 236668158#0 236668158#1 236668158#2"/>
    </person>
    <person id="ped15" type="ped_pedestrian" depart="60.52">
        <walk edges="178127283#3 178127283#4 178127283#5 178127283#6 769039656#4"/>
    </person>
    <person id="ped16" type="ped_pedestrian" depart="64.55">
        <walk edges="177618117#4 107057067#1 495582283 28833560#1 178127279 178127283#3 178127283#4 178127283#5 178127283#6"/>
    </person>
    <person id="ped17" type="ped_pedestrian" depart="68.58">
        <walk edges="28833560#2 28833560#3 178122151#8 107057045#3 107057045#2 178132938#0 178132682#2"/>
    </person>
    <person id="ped18" type="ped_pedestrian" depart="72.62">
        <walk edges="394727931#2 107057077#7 667794410#7 667794410#6 178127286#5 178127286#4"/>
    </person>
    <person id="ped19" type="ped_pedestrian" depart="76.65">
        <walk edges="236668157#4 236668157#3 236668157#2 236668157#1 236668157#0 233487131#7 233487131#6 233487131#5 233487131#4 236668158#4 -177612801"/>
    </person>
    <person id="ped20" type="ped_pedestrian" depart="80.69">
        <walk edges="107057088 107057077#6 107057077#7 236668158#0 236668158#1 236668158#2 236668158#3 236668158#4 -177612801 -177612410#5 177612410#6"/>
    </person>
    <person id="ped21" type="ped_pedestrian" depart="84.72">
        <walk edges="-177618117#3 107057067#1 107057067#0 236668176#6 236668176#5 236668176#4 236668176#3 236668176#2 236668176#1 394727931#2 107057091"/>
    </person>
    <person id="ped22" type="ped_pedestrian" depart="88.76">
        <walk edges="-177618355 233487131#4 236668158#4 -177612801 177612410#4"/>
    </person>
    <person id="ped23" type="ped_pedestrian" depart="92.79">
        <walk edges="178132938#1 178132682#2 178132682#3 667794410#0 667794410#1 667794410#2 667794410#3 177621056#3 177621056#2 177617884#1 177617878#1 177617878#2 177618117#1"/>
    </person>
    <person id="ped24" type="ped_pedestrian" depart="96.82">
        <walk edges="177618117#2 177617878#2 177617878#1 177617880#1 -177617879 236668176#3 236668176#2 236668176#1 107057077#7 107057077#6 107057077#5"/>
    </person>
    <person id="ped25" type="ped_pedestrian" depart="100.86">
        <walk edges="177612410#2 -177612803 236668158#2 236668158#1 236668158#0 107057077#7 667794410#7"/>
    </person>
    <person id="ped26" type="ped_pedestrian" depart="104.89">
        <walk edges="233487131#0 233487131#2 177618183 177617878#1 177617884#1 177621056#2 177621056#3 667794410#3 667794410#2 667794410#1 667794410#0 178132682#3 178132682#2 178132682#1 178132682#0"/>
    </person>
    <person id="ped27" type="ped_pedestrian" depart="108.93">
        <walk edges="107057045#6 107057045#5 769039656#2 769039656#3 769039656#4 178122151#5 236668157#4 236668157#3 236668157#2 236668157#1 236668157#0 107057077#7 236668158#0 236668158#1"/>
    </person>
    <person id="ped28" type="ped_pedestrian" depart="112.96">
        <walk edges="107057045#5 107057045#4 107057045#3 107057045#2 107057045#1 238804330 236668165#1 177618117#4"/>
    </person>
    <person id="ped29" type="ped_pedestrian" depart="117.00">
        <walk edges="769039656#7 769039656#6 769039656#5 178122151#6 178127283#6 178127283#5 178127283#4 178127283#3 178127283#2 178127283#1 178127283#0 667794410#4 177621056#3 236668176#5 236668176#6 178329461#0"/>
    </person>
    <person id="ped30" type="ped_pedestrian" depart="121.03">
        <walk edges="178127284 178127283#3 178127283#2 178127283#1 178127277 178127286#5 667794410#6 667794410#7 236668157#0"/>
    </person>
    <person id="ped31" type="ped_pedestrian" depart="125.06">
        <walk edges="28833560#5 769039656#3 769039656#4 178122151#5 236668157#4 236668157#3 107057077#5 107057088 236668175#2"/>
    </person>
    <person id="ped32" type="ped_pedestrian" depart="129.10">
        <walk edges="107057088 107057077#6 107057077#7 236668158#0 236668158#1 236668158#2 236668158#3 236668158#4 -177612801 -177612410#5 -177612410#6"/>
    </person>
    <person id="ped33" type="ped_pedestrian" depart="133.13">
        <walk edges="177617878#1 177617884#0 236668158#3 177612803 177612410#2"/>
    </person>
    <person id="ped34" type="ped_pedestrian" depart="137.17">
        <walk edges="107057077#5 236668157#2 236668157#1 107057069 667794410#6 667794410#5 667794410#4 667794410#3 667794410#2 667794410#1 667794410#0 178132682#3 769038279#0"/>
    </person>
    <person id="ped36" type="ped_pedestrian" depart="145.24">
        <walk edges="233487131#2 177618183"/>
    </person>
    <person id="ped37" type="ped_pedestrian" depart="149.27">
        <walk edges="667794410#3 667794410#2 28833560#0 28833560#1 28833560#2 28833560#3 178122151#8"/>
    </person>
    <person id="ped38" type="ped_pedestrian" depart="153.30">
        <walk edges="177612410#1 177612803 236668158#3 236668158#4 236668158#5 177612406#1"/>
    </person>
    <person id="ped39" type="ped_pedestrian" depart="157.34">
        <walk edges="178127286#1 178122151#5 236668157#4 236668157#3 236668157#2 236668157#1 236668157#0 107057077#7 236668158#0 236668158#1 -177612800 177612410#1"/>
    </person>
    <person id="ped41" type="ped_pedestrian" depart="165.41">
        <walk edges="177618355 236668176#2 236668176#1 107057077#7 107057077#6"/>
    </person>
    <person id="ped42" type="ped_pedestrian" depart="169.44">
        <walk edges="769039658 769039656#5 178127286#1 178127281#1"/>
    </person>
    <person id="ped43" type="ped_pedestrian" depart="173.48">
        <walk edges="-177618182 -177618117#0 233487131#2 233487131#3 236668158#3 -177612803"/>
    </person>
    <person id="ped44" type="ped_pedestrian" depart="177.51">
        <walk edges="-178123636 107057077#1 769039658 769039656#5 178122151#6 178122151#7 178122151#8 107057045#3 107057045#2 107057045#1 107057045#0 667794410#0 178132682#3"/>
    </person>
    <person id="ped45" type="ped_pedestrian" depart="181.55">
        <walk edges="236668176#3 236668176#4 177621056#3"/>
    </person>
    <person id="ped46" type="ped_pedestrian" depart="185.58">
        <walk edges="-177618117#0 -177618117#1 -177618117#2 177618117#3 177618117#4"/>
    </person>
    <person id="ped47" type="ped_pedestrian" depart="189.61">
        <walk edges="769039658 769039656#5 178122151#6 178127283#6 178127283#5 178127283#4 178127283#3 178127283#2 178127283#1"/>
    </person>
    <person id="ped48" type="ped_pedestrian" depart="193.65">
        <walk edges="769039656#4 178122151#5 236668157#4 236668157#3 236668157#2 236668157#1 236668157#0 107057077#7 394727931#2"/>
    </person>
    <person id="ped49" type="ped_pedestrian" depart="197.68">
        <walk edges="-177612410#2 -177612803 236668158#2 236668158#1 236668158#0"/>
    </person>
    <person id="ped50" type="ped_pedestrian" depart="201.72">
        <walk edges="233487131#7 667794410#7 667794410#6 178127286#5 178127277 178127283#1 178127283#2 178127283#3"/>
    </person>
    <person id="ped51" type="ped_pedestrian" depart="205.75">
        <walk edges="177612410#2 -177612803 236668158#2 236668158#1 236668158#0 236668176#1 236668176#2 236668176#3 236668176#4 236668176#5 236668176#6 178329461#0"/>
    </person>
    <person id="ped52" type="ped_pedestrian" depart="209.79">
        <walk edges="-178123636 107057077#1 769039658 769039656#5 178122151#6 178122151#7 178122151#8 178122151#9 178122151#10"/>
    </person>
    <person id="ped53" type="ped_pedestrian" depart="213.82">
        <walk edges="178122151#7 769039656#3 769039656#2 769039656#1 769039656#0"/>
    </person>
    <person id="ped55" type="ped_pedestrian" depart="221.89">
        <walk edges="178127281#0 236668157#3 236668157#2 236668157#1 107057069 667794410#6 667794410#5 667794410#4 177621056#3 236668176#5 236668176#6 107057067#0 107057067#1"/>
    </person>
    <person id="ped57" type="ped_pedestrian" depart="229.96">
        <walk edges="177612801 236668158#4 177617884#0 177617884#1 177617884#2 236668176#6 178329461#0"/>
    </person>
    <person id="ped58" type="ped_pedestrian" depart="233.99">
        <walk edges="178132682#0 178132682#1 178132938#0 107057045#2"/>
    </person>
    <person id="ped59" type="ped_pedestrian" depart="238.03">
        <walk edges="236668165#1 -177618117#4 107057067#1 495582283 28833560#1 178127279 178127283#3"/>
    </person>
    <person id="ped60" type="ped_pedestrian" depart="242.06">
        <walk edges="236668175#2 236668175#1 667794410#7 667794410#6 178127286#5 178127277 178127283#1"/>
    </person>
    <person id="ped61" type="ped_pedestrian" depart="246.09">
        <walk edges="-177612410#0 -177612800 236668158#1 236668158#0 236668176#1 236668176#2 236668176#3 177617879"/>
    </person>
    <person id="ped62" type="ped_pedestrian" depart="250.13">
        <walk edges="-177612410#3 -177612410#2 -177612803 236668158#2 236668158#1 236668158#0 107057077#7 667794410#7 667794410#6"/>
    </person>
    <person id="ped64" type="ped_pedestrian" depart="258.20">
        <walk edges="177612810 -177612410#4 -177612801 236668158#4 177617880#2 177617880#1 -177617879"/>
    </person>
    <person id="ped66" type="ped_pedestrian" depart="266.27">
        <walk edges="-177618117#4 107057067#1 495582283 28833560#1 178127279"/>
    </person>
    <person id="ped67" type="ped_pedestrian" depart="270.30">
        <walk edges="-177618117#1 -177618117#2 -177618117#3 -177618117#4 236668165#1"/>
    </person>
    <person id="ped68" type="ped_pedestrian" depart="274.34">
        <walk edges="236668165#2 238804330 107057045#1 107057045#2 107057045#3 107057045#4 107057045#5 -178132478"/>
    </person>
    <person id="ped69" type="ped_pedestrian" depart="278.37">
        <walk edges="178127277 178127283#1 178127283#2 178127283#3 178127283#4 178127283#5"/>
    </person>
    <person id="ped71" type="ped_pedestrian" depart="286.44">
        <walk edges="177621056#3 667794410#4 667794410#5 667794410#6 107057069 236668157#1 236668157#2 107057077#5"/>
    </person>
    <person id="ped72" type="ped_pedestrian" depart="290.47">
        <walk edges="178127283#3 178127283#2 178127283#1 178127277 178127286#5 667794410#6 667794410#7 107057077#7 236668158#0 236668158#1 236668158#2"/>
    </person>
    <person id="ped73" type="ped_pedestrian" depart="294.51">
        <walk edges="107057077#1 769039658 769039656#5 178122151#6 178127283#6 178127283#5 178127283#4 178127283#3 178127283#2 178127283#1 178127283#0 667794410#4 177621056#3 177621056#2 177617884#1 177617878#1"/>
    </person>
    <person id="ped74" type="ped_pedestrian" depart="298.54">
        <walk edges="769039658 769039656#5 178122151#5 236668157#4 236668157#3 236668157#2 236668157#1 236668157#0 233487131#7 233487131#6 233487131#5 233487131#4 236668158#4 236668158#5 233487131#0"/>
    </person>
    <person id="ped75" type="ped_pedestrian" depart="302.58">
        <walk edges="178122151#10 178122151#9 178122151#8 178122151#7 178122151#6 178127286#1 178127286#2 178127282#1"/>
    </person>
    <person id="ped76" type="ped_pedestrian" depart="306.61">
        <walk edges="-178127280#1 769039656#4 178122151#5 236668157#4 236668157#3 107057077#5 107057088"/>
    </person>
    <person id="ped77" type="ped_pedestrian" depart="310.64">
        <walk edges="177617880#2 177617880#1 177617880#0 177621056#2 177621056#3 667794410#4 178127283#0 178127283#1 178127283#2 178127283#3 178127283#4 178127283#5 178127283#6 178127280#1 178127717"/>
    </person>
    <person id="ped78" type="ped_pedestrian" depart="314.68">
        <walk edges="107057091 394727931#2 107057077#7"/>
    </person>
    <person id="ped79" type="ped_pedestrian" depart="318.71">
        <walk edges="-177618117#1 177617878#2 177617878#1 177617884#1 177621056#2 177621056#3 667794410#3 667794410#2 667794410#1 107057045#0 107057045#1 178132938#0"/>
    </person>
    <person id="ped80" type="ped_pedestrian" depart="322.75">
        <walk edges="107057088 107057077#6 667794410#7 667794410#6 667794410#5 667794410#4 667794410#3 667794410#2 667794410#1"/>
    </person>
    <person id="ped81" type="ped_pedestrian" depart="326.78">
        <walk edges="394727931#2 236668176#1 236668176#2 236668176#3 -177617879 177617880#1 177617878#1 177617878#2 -177618117#1"/>
    </person>
    <person id="ped82" type="ped_pedestrian" depart="330.82">
        <walk edges="177612401#0 177612401#1 233487131#4 233487131#5"/>
    </person>
    <person id="ped83" type="ped_pedestrian" depart="334.85">
        <walk edges="107057077#5 236668157#3 236668157#4 178122151#5 769039656#4 769039656#3 769039656#2 107057045#5 -178132478"/>
    </person>
    <person id="ped84" type="ped_pedestrian" depart="338.88">
        <walk edges="667794410#7 107057069 236668157#1 178127282#1 178127286#2"/>
    </person>
    <person id="ped85" type="ped_pedestrian" depart="342.92">
        <walk edges="178123636 -178123636 107057077#1 769039658 769039656#5 178122151#5 236668157#4 236668157#3 236668157#2 236668157#1 236668157#0 233487131#7 236668176#1"/>
    </person>
    <person id="ped86" type="ped_pedestrian" depart="346.95">
        <walk edges="236668176#6 236668176#5 177621056#3 667794410#4 667794410#5 667794410#6 107057069"/>
    </person>
    <person id="ped87" type="ped_pedestrian" depart="350.99">
        <walk edges="-177618183 177617878#1 177617880#1 -177617879 236668176#3 236668176#2 236668176#1 107057077#7 107057077#6 107057077#5 107057077#4 178122151#0"/>
    </person>
    <person id="ped88" type="ped_pedestrian" depart="355.02">
        <walk edges="178122147 769039658 769039656#5 178122151#5 236668157#4 236668157#3 178123202#0"/>
    </person>
    <person id="ped89" type="ped_pedestrian" depart="359.06">
        <walk edges="236668158#1 236668158#0 233487131#6 233487131#5"/>
    </person>
    <person id="ped90" type="ped_pedestrian" depart="363.09">
        <walk edges="769039656#6 769039656#5 178122151#5 236668157#4 236668157#3 236668157#2 236668157#1 236668157#0 233487131#7 233487131#6 233487131#5 -177618355"/>
    </person>
    <person id="ped91" type="ped_pedestrian" depart="367.13">
        <walk edges="177618355 236668176#3 -177617879 177617880#1 177617880#2"/>
    </person>
    <person id="ped92" type="ped_pedestrian" depart="371.16">
        <walk edges="394727931#2 107057091 236668158#1 236668158#2 236668158#3 236668158#4 236668158#5 177612406#1"/>
    </person>
    <person id="ped93" type="ped_pedestrian" depart="375.19">
        <walk edges="107057069 236668157#1 236668157#2 236668157#3 236668157#4 178122151#5 178122151#6"/>
    </person>
    <person id="ped94" type="ped_pedestrian" depart="379.23">
        <walk edges="177621056#3 177621056#2 177617880#0 177617880#1 177617880#2 236668158#4 -177612801 177612410#4"/>
    </person>
    <person id="ped95" type="ped_pedestrian" depart="383.26">
        <walk edges="177612406#1 233487131#2 177618183 177617878#1 177617884#1 177621056#2 177621056#3 667794410#4"/>
    </person>
    <person id="ped96" type="ped_pedestrian" depart="387.30">
        <walk edges="178122151#5 236668157#4 236668157#3 236668157#2 236668157#1 236668157#0 107057077#7 394727931#2"/>
    </person>
    <person id="ped97" type="ped_pedestrian" depart="391.33">
        <walk edges="178127283#5 178127282#0 178127282#1 236668157#1 236668157#0 107057077#7 236668158#0 236668158#1 236668158#2 -177612803"/>
    </person>
    <person id="ped98" type="ped_pedestrian" depart="395.37">
        <walk edges="769039658 769039656#5 178122151#6 178122151#7 28833560#3"/>
    </person>
    <person id="ped99" type="ped_pedestrian" depart="399.40">
        <walk edges="769039656#3 178127283#6 178127283#5 178127283#4 178127283#3 178127283#2 178127283#1 178127283#0 667794410#5"/>
    </person>
    <person id="ped100" type="ped_pedestrian" depart="403.43">
        <walk edges="394727931#0 394727931#1 394727931#2 107057077#7 236668157#0 236668157#1 236668157#2 236668157#3 236668157#4 178122151#5 769039656#4 769039656#3 769039656#2 107057045#5"/>
    </person>
    <person id="ped101" type="ped_pedestrian" depart="407.47">
        <walk edges="178127279 178127283#3 178127283#4 178127282#0 178127282#1 236668157#2 107057077#5"/>
    </person>
    <person id="ped102" type="ped_pedestrian" depart="411.50">
        <walk edges="177618355 236668176#3 -177617879"/>
    </person>
    <person id="ped103" type="ped_pedestrian" depart="415.54">
        <walk edges="177618117#4 107057067#1 495582283 28833560#1 28833560#2 28833560#3 178122151#7 178122151#6 769039656#5 769039656#6 769039656#7"/>
    </person>
    <person id="ped104" type="ped_pedestrian" depart="419.57">
        <walk edges="177612410#1 -177612800 236668158#1 236668158#0 236668176#1"/>
    </person>
    <person id="ped105" type="ped_pedestrian" depart="423.61">
        <walk edges="178122151#8 28833560#3 28833560#2 28833560#1 28833560#0 667794410#2 667794410#3 177621056#3"/>
    </person>
    <person id="ped106" type="ped_pedestrian" depart="427.64">
        <walk edges="769039656#1 769039656#2 769039656#3 769039656#4 769039656#5 769039658"/>
    </person>
    <person id="ped107" type="ped_pedestrian" depart="431.67">
        <walk edges="178127283#6 178127280#1 -178127717 236668157#8"/>
    </person>
    <person id="ped108" type="ped_pedestrian" depart="435.71">
        <walk edges="107057045#3 107057045#2 107057045#1 107057045#0 667794410#1 667794410#2 667794410#3 177621056#3 177621056#2 177617880#0 177617880#1 177617880#2 236668158#4 177612801"/>
    </person>
    <person id="ped109" type="ped_pedestrian" depart="439.74">
        <walk edges="769039656#3 769039656#4 178127286#1 178127286#2 178127286#3 178127286#4"/>
    </person>
    <person id="ped110" type="ped_pedestrian" depart="443.78">
        <walk edges="178127283#4 178127282#0 178127282#1 236668157#1 236668157#0 233487131#7 233487131#6 233487131#5 233487131#4 236668158#4 236668158#5"/>
    </person>
    <person id="ped111" type="ped_pedestrian" depart="447.81">
        <walk edges="-177617879 236668176#4 177621056#3 667794410#4 667794410#5 178127286#5"/>
    </person>
    <person id="ped112" type="ped_pedestrian" depart="451.85">
        <walk edges="178127281#0 236668157#3 236668157#2 236668157#1 236668157#0 107057077#7 394727931#2 394727931#1"/>
    </person>
    <person id="ped113" type="ped_pedestrian" depart="455.88">
        <walk edges="107057045#3 107057045#4 769039656#2"/>
    </person>
    <person id="ped114" type="ped_pedestrian" depart="459.91">
        <walk edges="-177618117#3 107057067#2"/>
    </person>
    <person id="ped115" type="ped_pedestrian" depart="463.95">
        <walk edges="178132478 769039656#1 769039656#2 769039656#3 769039656#4 178122151#5 236668157#4 236668157#3 236668157#2 236668157#1 236668157#0 233487131#7 233487131#6"/>
    </person>
    <person id="ped116" type="ped_pedestrian" depart="467.98">
        <walk edges="177612401#0 177612410#2 -177612803 236668158#2 236668158#1 236668158#0 107057077#7 236668157#0 236668157#1 236668157#2 236668157#3 236668157#4 178122151#5 769039656#4 -178127280#1"/>
    </person>
    <person id="ped118" type="ped_pedestrian" depart="476.05">
        <walk edges="178132478 769039656#1 107057045#4 107057045#3 107057045#2 178132938#0 178132682#2"/>
    </person>
    <person id="ped119" type="ped_pedestrian" depart="480.09">
        <walk edges="177621056#3 667794410#4 667794410#5 178127286#5"/>
    </person>
    <person id="ped120" type="ped_pedestrian" depart="484.12">
        <walk edges="178127283#0 667794410#5 667794410#6 667794410#7"/>
    </person>
    <person id="ped121" type="ped_pedestrian" depart="488.16">
        <walk edges="107057077#4 178122151#5 769039656#5 769039658 236668157#7 236668157#8"/>
    </person>
    <person id="ped122" type="ped_pedestrian" depart="492.19">
        <walk edges="177612401#0 177612401#1 233487131#3 177618183"/>
    </person>
    <person id="ped123" type="ped_pedestrian" depart="496.22">
        <walk edges="233487131#5 233487131#4 236668158#4 177612801"/>
    </person>
    <person id="ped124" type="ped_pedestrian" depart="500.26">
        <walk edges="177617878#1 177618183 233487131#2 236668158#6"/>
    </person>
    <person id="ped125" type="ped_pedestrian" depart="504.29">
        <walk edges="-177618117#2 -177618117#3 107057067#1 495582283 28833560#1 28833560#2 28833560#3 178122151#8"/>
    </person>
    <person id="ped126" type="ped_pedestrian" depart="508.33">
        <walk edges="769039658"/>
    </person>
    <person id="ped127" type="ped_pedestrian" depart="512.36">
        <walk edges="-177618117#2 177621056#1 177621056#2 177621056#3 667794410#4 667794410#5 667794410#6 107057069 236668157#1 236668157#2 107057077#5"/>
    </person>
    <person id="ped128" type="ped_pedestrian" depart="516.40">
        <walk edges="177612410#1 -177612800 236668158#1 236668158#0 107057077#7 667794410#7 667794410#6"/>
    </person>
    <person id="ped129" type="ped_pedestrian" depart="520.43">
        <walk edges="495582290"/>
    </person>
    <person id="ped130" type="ped_pedestrian" depart="524.46">
        <walk edges="177618117#2 177618117#3 177618117#4 236668165#1 238804330 107057045#1 107057045#2 107057045#3"/>
    </person>
    <person id="ped131" type="ped_pedestrian" depart="528.50">
        <walk edges="28833560#3 178127284 178127283#4 178127282#0 178127282#1 236668157#2 236668157#3"/>
    </person>
    <person id="ped132" type="ped_pedestrian" depart="532.53">
        <walk edges="178132682#0 178122151#9 178122151#8 178122151#7 178122151#6 769039656#5 769039656#6 769039656#7"/>
    </person>
    <person id="ped133" type="ped_pedestrian" depart="536.57">
        <walk edges="233487131#2 233487131#3 236668158#3 -177612803 -177612410#1"/>
    </person>
    <person id="ped134" type="ped_pedestrian" depart="540.60">
        <walk edges="28833560#0 667794410#2 667794410#3 177621056#3 177621056#2 177617880#0 177617880#1 177617880#2 236668158#4 177612801"/>
    </person>
    <person id="ped135" type="ped_pedestrian" depart="544.64">
        <walk edges="233487131#4 177617880#2 177617880#1 177617880#0 177621056#2 177621056#3 667794410#3 667794410#2 667794410#1 667794410#0 178132682#3 769038279#0"/>
    </person>
    <person id="ped136" type="ped_pedestrian" depart="548.67">
        <walk edges="107057039 233487131#6 233487131#7 236668157#0 236668157#1 236668157#2 236668157#3 236668157#4 178122151#5 769039656#4 -178127280#1 -178127280#0"/>
    </person>
    <person id="ped137" type="ped_pedestrian" depart="552.70">
        <walk edges="-178123202#0 236668157#3 178127281#0 178127281#1 178127283#6"/>
    </person>
    <person id="ped138" type="ped_pedestrian" depart="556.74">
        <walk edges="177612410#3 177612401#1 177617880#2 177617880#1 177617880#0 177621056#2 177621056#3 667794410#3 667794410#2 667794410#1 667794410#0 178132682#3 178132682#2 178132682#1 178132681#1"/>
    </person>
    <person id="ped139" type="ped_pedestrian" depart="560.77">
        <walk edges="236668157#8 236668157#7 107057077#1"/>
    </person>
    <person id="ped140" type="ped_pedestrian" depart="564.81">
        <walk edges="178132938#1 178132682#2 178132682#3 667794410#0 667794410#1 667794410#2 667794410#3 667794410#4 667794410#5 667794410#6 667794410#7 107057077#7 236668158#0 236668158#1 -177612800 177612410#1"/>
    </person>
    <person id="ped141" type="ped_pedestrian" depart="568.84">
        <walk edges="178127279 28833560#1 28833560#0 667794410#1"/>
    </person>
    <person id="ped142" type="ped_pedestrian" depart="572.88">
        <walk edges="28833560#5 28833560#4 28833560#3 28833560#2 28833560#1 28833560#0 667794410#2 667794410#3 177621056#3 177621056#2 177617884#1 177617878#1 -177618183"/>
    </person>
    <person id="ped143" type="ped_pedestrian" depart="576.91">
        <walk edges="178122147 769039658 769039656#5 178122151#5 236668157#4 236668157#3 236668157#2 236668157#1 236668157#0 107057077#7 236668158#0 236668158#1 236668158#2 177612803 -177612410#2 -177612410#3 177612410#4"/>
    </person>
    <person id="ped144" type="ped_pedestrian" depart="580.95">
        <walk edges="-177612410#0 -177612800 236668158#1 236668158#0 107057077#7 236668175#1"/>
    </person>
    <person id="ped145" type="ped_pedestrian" depart="584.98">
        <walk edges="178132938#1 178132682#2 178132682#3 667794410#0 667794410#1 667794410#2 667794410#3 667794410#4 667794410#5 667794410#6 667794410#7 107057077#7 236668158#0 236668158#1 -177612800 177612410#1"/>
    </person>
    <person id="ped146" type="ped_pedestrian" depart="589.01">
        <walk edges="236668158#4 233487131#4 233487131#5 233487131#6 233487131#7 236668157#0 236668157#1 236668157#2 236668157#3 178127281#0 178127281#1 178127283#6"/>
    </person>
    <person id="ped147" type="ped_pedestrian" depart="593.05">
        <walk edges="178122147 769039658 769039656#5 178122151#5 236668157#4 236668157#3 236668157#2 236668157#1 236668157#0 107057077#7 236668158#0 236668158#1 236668158#2 -177612803 -177612410#1"/>
    </person>
    <person id="ped149" type="ped_pedestrian" depart="601.12">
        <walk edges="667794410#1 667794410#2 667794410#3 667794410#4 178127283#0 178127283#1 178127283#2 178127283#3 178127283#4"/>
    </person>
    <person id="ped150" type="ped_pedestrian" depart="605.15">
        <walk edges="28833560#3 178127284 178127283#3 178127283#2 178127283#1 178127277 178127286#5"/>
    </person>
    <person id="ped151" type="ped_pedestrian" depart="609.19">
        <walk edges="107057045#2 107057045#3 178122151#8 178122151#7 178127280#1 -178127717"/>
    </person>
    <person id="ped152" type="ped_pedestrian" depart="613.22">
        <walk edges="177612810 -177612410#4 -177612801 236668158#4 177617880#2 177617880#1 177617880#0 177621056#2 177621056#3 667794410#3 667794410#2 667794410#1 667794410#0"/>
    </person>
    <person id="ped153" type="ped_pedestrian" depart="617.25">
        <walk edges="236668176#4 236668176#3 236668176#2 236668176#1 394727931#2"/>
    </person>
    <person id="ped154" type="ped_pedestrian" depart="621.29">
        <walk edges="667794410#0 667794410#1 667794410#2 667794410#3 667794410#4 667794410#5 667794410#6 107057069 236668157#1 236668157#2 107057077#5"/>