<?xml version="1.0" encoding="UTF-8"?>
<!-- generated on 2020-02-08 02:33:50.552241 by osmWebWizard.py UNKNOWN
  options: 
-->
<routes xmlns:xsi="http://www.w3.org/2001/XMLSchema-instance" xsi:noNamespaceSchemaLocation="http://sumo.dlr.de/xsd/routes_file.xsd">
    <vType id="ped_pedestrian" vClass="pedestrian"/>
    <person id="ped0" depart="0.00" type="ped_pedestrian">
        <walk from="178329461#0" to="-177612410#4"/>
    </person>
    <person id="ped1" depart="4.03" type="ped_pedestrian">
        <walk from="177612410#3" to="107057077#7"/>
    </person>
    <person id="ped2" depart="8.07" type="ped_pedestrian">
        <walk from="236668158#3" to="233487131#6"/>
    </person>
    <person id="ped3" depart="12.10" type="ped_pedestrian">
        <walk from="495582292" to="-177618182"/>
    </person>
    <person id="ped4" depart="16.14" type="ped_pedestrian">
        <walk from="177621056#3" to="-177612410#5"/>
    </person>
    <person id="ped5" depart="20.17" type="ped_pedestrian">
        <walk from="107057077#6" to="178127281#1"/>
    </person>
    <person id="ped6" depart="24.21" type="ped_pedestrian">
        <walk from="233487131#0" to="178127283#4"/>
    </person>
    <person id="ped7" depart="28.24" type="ped_pedestrian">
        <walk from="107057077#7" to="178127717"/>
    </person>
    <person id="ped8" depart="32.27" type="ped_pedestrian">
        <walk from="236668176#6" to="-177612410#1"/>
    </person>
    <person id="ped9" depart="36.31" type="ped_pedestrian">
        <walk from="236668176#5" to="236668157#2"/>
    </person>
    <person id="ped10" depart="40.34" type="ped_pedestrian">
        <walk from="177617880#2" to="107057045#3"/>
    </person>
    <person id="ped11" depart="44.38" type="ped_pedestrian">
        <walk from="769039656#1" to="177617880#1"/>
    </person>
    <person id="ped12" depart="48.41" type="ped_pedestrian">
        <walk from="-177618183" to="-177618183"/>
    </person>
    <person id="ped13" depart="52.45" type="ped_pedestrian">
        <walk from="394727931#0" to="178132681#1"/>
    </person>
    <person id="ped14" depart="56.48" type="ped_pedestrian">
        <walk from="236668176#6" to="236668158#2"/>
    </person>
    <person id="ped15" depart="60.52" type="ped_pedestrian">
        <walk from="178127283#3" to="769039656#4"/>
    </person>
    <person id="ped16" depart="64.55" type="ped_pedestrian">
        <walk from="177618117#4" to="178127283#6"/>
    </person>
    <person id="ped17" depart="68.58" type="ped_pedestrian">
        <walk from="28833560#2" to="178132682#2"/>
    </person>
    <person id="ped18" depart="72.62" type="ped_pedestrian">
        <walk from="394727931#2" to="178127286#4"/>
    </person>
    <person id="ped19" depart="76.65" type="ped_pedestrian">
        <walk from="236668157#4" to="-177612801"/>
    </person>
    <person id="ped20" depart="80.69" type="ped_pedestrian">
        <walk from="107057088" to="177612410#6"/>
    </person>
    <person id="ped21" depart="84.72" type="ped_pedestrian">
        <walk from="-177618117#3" to="107057091"/>
    </person>
    <person id="ped22" depart="88.76" type="ped_pedestrian">
        <walk from="-177618355" to="177612410#4"/>
    </person>
    <person id="ped23" depart="92.79" type="ped_pedestrian">
        <walk from="178132938#1" to="177618117#1"/>
    </person>
    <person id="ped24" depart="96.82" type="ped_pedestrian">
        <walk from="177618117#2" to="107057077#5"/>
    </person>
    <person id="ped25" depart="100.86" type="ped_pedestrian">
        <walk from="177612410#2" to="667794410#7"/>
    </person>
    <person id="ped26" depart="104.89" type="ped_pedestrian">
        <walk from="233487131#0" to="178132682#0"/>
    </person>
    <person id="ped27" depart="108.93" type="ped_pedestrian">
        <walk from="107057045#6" to="236668158#1"/>
    </person>
    <person id="ped28" depart="112.96" type="ped_pedestrian">
        <walk from="107057045#5" to="177618117#4"/>
    </person>
    <person id="ped29" depart="117.00" type="ped_pedestrian">
        <walk from="769039656#7" to="178329461#0"/>
    </person>
    <person id="ped30" depart="121.03" type="ped_pedestrian">
        <walk from="178127284" to="236668157#0"/>
    </person>
    <person id="ped31" depart="125.06" type="ped_pedestrian">
        <walk from="28833560#5" to="236668175#2"/>
    </person>
    <person id="ped32" depart="129.10" type="ped_pedestrian">
        <walk from="107057088" to="-177612410#6"/>
    </person>
    <person id="ped33" depart="133.13" type="ped_pedestrian">
        <walk from="177617878#1" to="177612410#2"/>
    </person>
    <person id="ped34" depart="137.17" type="ped_pedestrian">
        <walk from="107057077#5" to="769038279#0"/>
    </person>
    <person id="ped35" depart="141.20" type="ped_pedestrian">
        <walk from="495582289" to="177617878#1"/>
    </person>
    <person id="ped36" depart="145.24" type="ped_pedestrian">
        <walk from="233487131#2" to="177618183"/>
    </person>
    <person id="ped37" depart="149.27" type="ped_pedestrian">
        <walk from="667794410#3" to="178122151#8"/>
    </person>
    <person id="ped38" depart="153.30" type="ped_pedestrian">
        <walk from="177612410#1" to="177612406#1"/>
    </person>
    <person id="ped39" depart="157.34" type="ped_pedestrian">
        <walk from="178127286#1" to="177612410#1"/>
    </person>
    <person id="ped40" depart="161.37" type="ped_pedestrian">
        <walk from="178127286#5" to="495582293"/>
    </person>
    <person id="ped41" depart="165.41" type="ped_pedestrian">
        <walk from="177618355" to="107057077#6"/>
    </person>
    <person id="ped42" depart="169.44" type="ped_pedestrian">
        <walk from="769039658" to="178127281#1"/>
    </person>
    <person id="ped43" depart="173.48" type="ped_pedestrian">
        <walk from="-177618182" to="-177612803"/>
    </person>
    <person id="ped44" depart="177.51" type="ped_pedestrian">
        <walk from="-178123636" to="178132682#3"/>
    </person>
    <person id="ped45" depart="181.55" type="ped_pedestrian">
        <walk from="236668176#3" to="177621056#3"/>
    </person>
    <person id="ped46" depart="185.58" type="ped_pedestrian">
        <walk from="-177618117#0" to="177618117#4"/>
    </person>
    <person id="ped47" depart="189.61" type="ped_pedestrian">
        <walk from="769039658" to="178127283#1"/>
    </person>
    <person id="ped48" depart="193.65" type="ped_pedestrian">
        <walk from="769039656#4" to="394727931#2"/>
    </person>
    <person id="ped49" depart="197.68" type="ped_pedestrian">
        <walk from="-177612410#2" to="236668158#0"/>
    </person>
    <person id="ped50" depart="201.72" type="ped_pedestrian">
        <walk from="233487131#7" to="178127283#3"/>
    </person>
    <person id="ped51" depart="205.75" type="ped_pedestrian">
        <walk from="177612410#2" to="178329461#0"/>
    </person>
    <person id="ped52" depart="209.79" type="ped_pedestrian">
        <walk from="-178123636" to="178122151#10"/>
    </person>
    <person id="ped53" depart="213.82" type="ped_pedestrian">
        <walk from="178122151#7" to="769039656#0"/>
    </person>
    <person id="ped54" depart="217.85" type="ped_pedestrian">
        <walk from="495582289" to="177612410#1"/>
    </person>
    <person id="ped55" depart="221.89" type="ped_pedestrian">
        <walk from="178127281#0" to="107057067#1"/>
    </person>
    <person id="ped56" depart="225.92" type="ped_pedestrian">
        <walk from="667794410#2" to="495582288"/>
    </person>
    <person id="ped57" depart="229.96" type="ped_pedestrian">
        <walk from="177612801" to="178329461#0"/>
    </person>
    <person id="ped58" depart="233.99" type="ped_pedestrian">
        <walk from="178132682#0" to="107057045#2"/>
    </person>
    <person id="ped59" depart="238.03" type="ped_pedestrian">
        <walk from="236668165#1" to="178127283#3"/>
    </person>
    <person id="ped60" depart="242.06" type="ped_pedestrian">
        <walk from="236668175#2" to="178127283#1"/>
    </person>
    <person id="ped61" depart="246.09" type="ped_pedestrian">
        <walk from="-177612410#0" to="177617879"/>
    </person>
    <person id="ped62" depart="250.13" type="ped_pedestrian">
        <walk from="-177612410#3" to="667794410#6"/>
    </person>
    <person id="ped63" depart="254.16" type="ped_pedestrian">
        <walk from="495582290" to="28833560#3"/>
    </person>
    <person id="ped64" depart="258.20" type="ped_pedestrian">
        <walk from="177612810" to="-177617879"/>
    </person>
    <person id="ped65" depart="262.23" type="ped_pedestrian">
        <walk from="495582290" to="769038279#1"/>
    </person>
    <person id="ped66" depart="266.27" type="ped_pedestrian">
        <walk from="-177618117#4" to="178127279"/>
    </person>
    <person id="ped67" depart="270.30" type="ped_pedestrian">
        <walk from="-177618117#1" to="236668165#1"/>
    </person>
    <person id="ped68" depart="274.34" type="ped_pedestrian">
        <walk from="236668165#2" to="-178132478"/>
    </person>
    <person id="ped69" depart="278.37" type="ped_pedestrian">
        <walk from="178127277" to="178127283#5"/>
    </person>
    <person id="ped70" depart="282.40" type="ped_pedestrian">
        <walk from="177612410#1" to="495582288"/>
    </person>
    <person id="ped71" depart="286.44" type="ped_pedestrian">
        <walk from="177621056#3" to="107057077#5"/>
    </person>
    <person id="ped72" depart="290.47" type="ped_pedestrian">
        <walk from="178127283#3" to="236668158#2"/>
    </person>
    <person id="ped73" depart="294.51" type="ped_pedestrian">
        <walk from="107057077#1" to="177617878#1"/>
    </person>
    <person id="ped74" depart="298.54" type="ped_pedestrian">
        <walk from="769039658" to="233487131#0"/>
    </person>
    <person id="ped75" depart="302.58" type="ped_pedestrian">
        <walk from="178122151#10" to="178127282#1"/>
    </person>
    <person id="ped76" depart="306.61" type="ped_pedestrian">
        <walk from="-178127280#1" to="107057088"/>
    </person>
    <person id="ped77" depart="310.64" type="ped_pedestrian">
        <walk from="177617880#2" to="178127717"/>
    </person>
    <person id="ped78" depart="314.68" type="ped_pedestrian">
        <walk from="107057091" to="107057077#7"/>
    </person>
    <person id="ped79" depart="318.71" type="ped_pedestrian">
        <walk from="-177618117#1" to="178132938#0"/>
    </person>
    <person id="ped80" depart="322.75" type="ped_pedestrian">
        <walk from="107057088" to="667794410#1"/>
    </person>
    <person id="ped81" depart="326.78" type="ped_pedestrian">
        <walk from="394727931#2" to="-177618117#1"/>
    </person>
    <person id="ped82" depart="330.82" type="ped_pedestrian">
        <walk from="177612401#0" to="233487131#5"/>
    </person>
    <person id="ped83" depart="334.85" type="ped_pedestrian">
        <walk from="107057077#5" to="-178132478"/>
    </person>
    <person id="ped84" depart="338.88" type="ped_pedestrian">
        <walk from="667794410#7" to="178127286#2"/>
    </person>
    <person id="ped85" depart="342.92" type="ped_pedestrian">
        <walk from="178123636" to="236668176#1"/>
    </person>
    <person id="ped86" depart="346.95" type="ped_pedestrian">
        <walk from="236668176#6" to="107057069"/>
    </person>
    <person id="ped87" depart="350.99" type="ped_pedestrian">
        <walk from="-177618183" to="178122151#0"/>
    </person>
    <person id="ped88" depart="355.02" type="ped_pedestrian">
        <walk from="178122147" to="178123202#0"/>
    </person>
    <person id="ped89" depart="359.06" type="ped_pedestrian">
        <walk from="236668158#1" to="233487131#5"/>
    </person>
    <person id="ped90" depart="363.09" type="ped_pedestrian">
        <walk from="769039656#6" to="-177618355"/>
    </person>
    <person id="ped91" depart="367.13" type="ped_pedestrian">
        <walk from="177618355" to="177617880#2"/>
    </person>
    <person id="ped92" depart="371.16" type="ped_pedestrian">
        <walk from="394727931#2" to="177612406#1"/>
    </person>
    <person id="ped93" depart="375.19" type="ped_pedestrian">
        <walk from="107057069" to="178122151#6"/>
    </person>
    <person id="ped94" depart="379.23" type="ped_pedestrian">
        <walk from="177621056#3" to="177612410#4"/>
    </person>
    <person id="ped95" depart="383.26" type="ped_pedestrian">
        <walk from="177612406#1" to="667794410#4"/>
    </person>
    <person id="ped96" depart="387.30" type="ped_pedestrian">
        <walk from="178122151#5" to="394727931#2"/>
    </person>
    <person id="ped97" depart="391.33" type="ped_pedestrian">
        <walk from="178127283#5" to="-177612803"/>
    </person>
    <person id="ped98" depart="395.37" type="ped_pedestrian">
        <walk from="769039658" to="28833560#3"/>
    </person>
    <person id="ped99" depart="399.40" type="ped_pedestrian">
        <walk from="769039656#3" to="667794410#5"/>
    </person>
    <person id="ped100" depart="403.43" type="ped_pedestrian">
        <walk from="394727931#0" to="107057045#5"/>
    </person>
    <person id="ped101" depart="407.47" type="ped_pedestrian">
        <walk from="178127279" to="107057077#5"/>
    </person>
    <person id="ped102" depart="411.50" type="ped_pedestrian">
        <walk from="177618355" to="-177617879"/>
    </person>
    <person id="ped103" depart="415.54" type="ped_pedestrian">
        <walk from="177618117#4" to="769039656#7"/>
    </person>
    <person id="ped104" depart="419.57" type="ped_pedestrian">
        <walk from="177612410#1" to="236668176#1"/>
    </person>
    <person id="ped105" depart="423.61" type="ped_pedestrian">
        <walk from="178122151#8" to="177621056#3"/>
    </person>
    <person id="ped106" depart="427.64" type="ped_pedestrian">
        <walk from="769039656#1" to="769039658"/>
    </person>
    <person id="ped107" depart="431.67" type="ped_pedestrian">
        <walk from="178127283#6" to="236668157#8"/>
    </person>
    <person id="ped108" depart="435.71" type="ped_pedestrian">
        <walk from="107057045#3" to="177612801"/>
    </person>
    <person id="ped109" depart="439.74" type="ped_pedestrian">
        <walk from="769039656#3" to="178127286#4"/>
    </person>
    <person id="ped110" depart="443.78" type="ped_pedestrian">
        <walk from="178127283#4" to="236668158#5"/>
    </person>
    <person id="ped111" depart="447.81" type="ped_pedestrian">
        <walk from="-177617879" to="178127286#5"/>
    </person>
    <person id="ped112" depart="451.85" type="ped_pedestrian">
        <walk from="178127281#0" to="394727931#1"/>
    </person>
    <person id="ped113" depart="455.88" type="ped_pedestrian">
        <walk from="107057045#3" to="769039656#2"/>
    </person>
    <person id="ped114" depart="459.91" type="ped_pedestrian">
        <walk from="-177618117#3" to="107057067#2"/>
    </person>
    <person id="ped115" depart="463.95" type="ped_pedestrian">
        <walk from="178132478" to="233487131#6"/>
    </person>
    <person id="ped116" depart="467.98" type="ped_pedestrian">
        <walk from="177612401#0" to="-178127280#1"/>
    </person>
    <person id="ped117" depart="472.02" type="ped_pedestrian">
        <walk from="495582292" to="177612406#1"/>
    </person>
    <person id="ped118" depart="476.05" type="ped_pedestrian">
        <walk from="178132478" to="178132682#2"/>
    </person>
    <person id="ped119" depart="480.09" type="ped_pedestrian">
        <walk from="177621056#3" to="178127286#5"/>
    </person>
    <person id="ped120" depart="484.12" type="ped_pedestrian">
        <walk from="178127283#0" to="667794410#7"/>
    </person>
    <person id="ped121" depart="488.16" type="ped_pedestrian">
        <walk from="107057077#4" to="236668157#8"/>
    </person>
    <person id="ped122" depart="492.19" type="ped_pedestrian">
        <walk from="177612401#0" to="177618183"/>
    </person>
    <person id="ped123" depart="496.22" type="ped_pedestrian">
        <walk from="233487131#5" to="177612801"/>
    </person>
    <person id="ped124" depart="500.26" type="ped_pedestrian">
        <walk from="177617878#1" to="236668158#6"/>
    </person>
    <person id="ped125" depart="504.29" type="ped_pedestrian">
        <walk from="-177618117#2" to="178122151#8"/>
    </person>
    <person id="ped126" depart="508.33" type="ped_pedestrian">
        <walk from="769039658" to="769039658"/>
    </person>
    <person id="ped127" depart="512.36" type="ped_pedestrian">
        <walk from="-177618117#2" to="107057077#5"/>
    </person>
    <person id="ped128" depart="516.40" type="ped_pedestrian">
        <walk from="177612410#1" to="667794410#6"/>
    </person>
    <person id="ped129" depart="520.43" type="ped_pedestrian">
        <walk from="495582290" to="495582290"/>
    </person>
    <person id="ped130" depart="524.46" type="ped_pedestrian">
        <walk from="177618117#2" to="107057045#3"/>
    </person>
    <person id="ped131" depart="528.50" type="ped_pedestrian">
        <walk from="28833560#3" to="236668157#3"/>
    </person>
    <person id="ped132" depart="532.53" type="ped_pedestrian">
        <walk from="178132682#0" to="769039656#7"/>
    </person>
    <person id="ped133" depart="536.57" type="ped_pedestrian">
        <walk from="233487131#2" to="-177612410#1"/>
    </person>
    <person id="ped134" depart="540.60" type="ped_pedestrian">
        <walk from="28833560#0" to="177612801"/>
    </person>
    <person id="ped135" depart="544.64" type="ped_pedestrian">
        <walk from="233487131#4" to="769038279#0"/>
    </person>
    <person id="ped136" depart="548.67" type="ped_pedestrian">
        <walk from="107057039" to="-178127280#0"/>
    </person>
    <person id="ped137" depart="552.70" type="ped_pedestrian">
        <walk from="-178123202#0" to="178127283#6"/>
    </person>
    <person id="ped138" depart="556.74" type="ped_pedestrian">
        <walk from="177612410#3" to="178132681#1"/>
    </person>
    <person id="ped139" depart="560.77" type="ped_pedestrian">
        <walk from="236668157#8" to="107057077#1"/>
    </person>
    <person id="ped140" depart="564.81" type="ped_pedestrian">
        <walk from="178132938#1" to="177612410#1"/>
    </person>
    <person id="ped141" depart="568.84" type="ped_pedestrian">
        <walk from="178127279" to="667794410#1"/>
    </person>
    <person id="ped142" depart="572.88" type="ped_pedestrian">
        <walk from="28833560#5" to="-177618183"/>
    </person>
    <person id="ped143" depart="576.91" type="ped_pedestrian">
        <walk from="178122147" to="177612410#4"/>
    </person>
    <person id="ped144" depart="580.95" type="ped_pedestrian">
        <walk from="-177612410#0" to="236668175#1"/>
    </person>
    <person id="ped145" depart="584.98" type="ped_pedestrian">
        <walk from="178132938#1" to="177612410#1"/>
    </person>
    <person id="ped146" depart="589.01" type="ped_pedestrian">
        <walk from="236668158#4" to="178127283#6"/>
    </person>
    <person id="ped147" depart="593.05" type="ped_pedestrian">
        <walk from="178122147" to="-177612410#1"/>
    </person>
    <person id="ped148" depart="597.08" type="ped_pedestrian">
        <walk from="-177618117#2" to="495582291"/>
    </person>
    <person id="ped149" depart="601.12" type="ped_pedestrian">
        <walk from="667794410#1" to="178127283#4"/>
    </person>
    <person id="ped150" depart="605.15" type="ped_pedestrian">
        <walk from="28833560#3" to="178127286#5"/>
    </person>
    <person id="ped151" depart="609.19" type="ped_pedestrian">
        <walk from="107057045#2" to="-178127717"/>
    </person>
    <person id="ped152" depart="613.22" type="ped_pedestrian">
        <walk from="177612810" to="667794410#0"/>
    </person>
    <person id="ped153" depart="617.25" type="ped_pedestrian">
        <walk from="236668176#4" to="394727931#2"/>
    </person>
    <person id="ped154" depart="621.29" type="ped_pedestrian">
        <walk from="667794410#0" to="107057077#5"/>
    </person>
    <person id="ped155" depart="625.32" type="ped_pedestrian">
        <walk from="177612406#1" to="-178123202#0"/>
    </person>
    <person id="ped156" depart="629.36" type="ped_pedestrian">
        <walk from="236668175#2" to="495582291"/>
    </person>
    <person id="ped157" depart="633.39" type="ped_pedestrian">
        <walk from="177621056#0" to="178132682#2"/>
    </person>
    <person id="ped158" depart="637.43" type="ped_pedestrian">
        <walk from="107057045#3" to="667794410#6"/>
    </person>
    <person id="ped159" depart="641.46" type="ped_pedestrian">
        <walk from="495582283" to="769039656#5"/>
    </person>
    <person id="ped160" depart="645.49" type="ped_pedestrian">
        <walk from="236668176#6" to="495582290"/>
    </person>
    <person id="ped161" depart="649.53" type="ped_pedestrian">
        <walk from="-177612410#4" to="236668158#3"/>
    </person>
    <person id="ped162" depart="653.56" type="ped_pedestrian">
        <walk from="177617880#1" to="667794410#6"/>
    </person>
    <person id="ped163" depart="657.60" type="ped_pedestrian">
        <walk from="236668176#5" to="495582283"/>
    </person>
    <person id="ped164" depart="661.63" type="ped_pedestrian">
        <walk from="236668176#6" to="177612410#2"/>
    </person>
    <person id="ped165" depart="665.67" type="ped_pedestrian">
        <walk from="236668176#2" to="-178123636"/>
    </person>
    <person id="ped166" depart="669.70" type="ped_pedestrian">
        <walk from="495582288" to="394727931#2"/>
    </person>
    <person id="ped167" depart="673.74" type="ped_pedestrian">
        <walk from="107057077#7" to="28833560#0"/>
    </person>
    <person id="ped168" depart="677.77" type="ped_pedestrian">
        <walk from="178122151#9" to="177612803"/>
    </person>
    <person id="ped169" depart="681.80" type="ped_pedestrian">
        <walk from="236668176#3" to="107057088"/>
    </person>
    <person id="ped170" depart="685.84" type="ped_pedestrian">
        <walk from="-177612410#4" to="107057069"/>
    </person>
    <person id="ped171" depart="689.87" type="ped_pedestrian">
        <walk from="177617880#0" to="495582283"/>
    </person>
    <person id="ped172" depart="693.91" type="ped_pedestrian">
        <walk from="769039656#3" to="177612410#4"/>
    </person>
    <person id="ped173" depart="697.94" type="ped_pedestrian">
        <walk from="178329461#0" to="177618355"/>
    </person>
    <person id="ped174" depart="701.98" type="ped_pedestrian">
        <walk from="769039656#6" to="178127283#3"/>
    </person>
    <person id="ped175" depart="706.01" type="ped_pedestrian">
        <walk from="769038279#0" to="-178127280#0"/>
    </person>
    <person id="ped176" depart="710.04" type="ped_pedestrian">
        <walk from="769039656#4" to="107057067#0"/>
    </person>
    <person id="ped177" depart="714.08" type="ped_pedestrian">
        <walk from="769039656#2" to="177612410#2"/>
    </person>
    <person id="ped178" depart="718.11" type="ped_pedestrian">
        <walk from="-178123636" to="178122151#10"/>
    </person>
    <person id="ped179" depart="722.15" type="ped_pedestrian">
        <walk from="236668158#1" to="177617878#1"/>
    </person>
    <person id="ped180" depart="726.18" type="ped_pedestrian">
        <walk from="178132681#1" to="178127282#0"/>
    </person>
    <person id="ped181" depart="730.22" type="ped_pedestrian">
        <walk from="177618181#0" to="178127286#4"/>
    </person>
    <person id="ped182" depart="734.25" type="ped_pedestrian">
        <walk from="177612406#2" to="236668157#4"/>
    </person>
    <person id="ped183" depart="738.28" type="ped_pedestrian">
        <walk from="-177612410#0" to="667794410#5"/>
    </person>
    <person id="ped184" depart="742.32" type="ped_pedestrian">
        <walk from="178127283#3" to="236668158#0"/>
    </person>
    <person id="ped185" depart="746.35" type="ped_pedestrian">
        <walk from="236668158#4" to="233487131#5"/>
    </person>
    <person id="ped186" depart="750.39" type="ped_pedestrian">
        <walk from="177618117#1" to="-177618117#1"/>
    </person>
    <person id="ped187" depart="754.42" type="ped_pedestrian">
        <walk from="233487131#4" to="177617880#0"/>
    </person>
    <person id="ped188" depart="758.46" type="ped_pedestrian">
        <walk from="177617878#1" to="394727931#0"/>
    </person>
    <person id="ped189" depart="762.49" type="ped_pedestrian">
        <walk from="236668158#0" to="177612801"/>
    </person>
    <person id="ped190" depart="766.52" type="ped_pedestrian">
        <walk from="177612810" to="177621056#1"/>
    </person>
    <person id="ped191" depart="770.56" type="ped_pedestrian">
        <walk from="177618355" to="177612800"/>
    </person>
    <person id="ped192" depart="774.59" type="ped_pedestrian">
        <walk from="-178127717" to="177621056#3"/>
    </person>
    <person id="ped193" depart="778.63" type="ped_pedestrian">
        <walk from="769038279#0" to="233487131#6"/>
    </person>
    <person id="ped194" depart="782.66" type="ped_pedestrian">
        <walk from="667794410#0" to="178132682#1"/>
    </person>
    <person id="ped195" depart="786.70" type="ped_pedestrian">
        <walk from="177612801" to="178127283#5"/>
    </person>
    <person id="ped196" depart="790.73" type="ped_pedestrian">
        <walk from="-177612410#0" to="177612410#6"/>
    </person>
    <person id="ped197" depart="794.77" type="ped_pedestrian">
        <walk from="178122151#0" to="178127286#4"/>
    </person>
    <person id="ped198" depart="798.80" type="ped_pedestrian">
        <walk from="233487131#2" to="178123202#0"/>
    </person>
    <person id="ped199" depart="802.83" type="ped_pedestrian">
        <walk from="178122151#5" to="107057077#5"/>
    </person>
    <person id="ped200" depart="806.87" type="ped_pedestrian">
        <walk from="178123636" to="667794410#0"/>
    </person>
    <person id="ped201" depart="810.90" type="ped_pedestrian">
        <walk from="236668176#4" to="107057045#6"/>
    </person>
    <person id="ped202" depart="814.94" type="ped_pedestrian">
        <walk from="-177618117#4" to="178127282#1"/>
    </person>
    <person id="ped203" depart="818.97" type="ped_pedestrian">
        <walk from="178132938#1" to="177617880#1"/>
    </person>
    <person id="ped204" depart="823.01" type="ped_pedestrian">
        <walk from="28833560#0" to="236668158#6"/>
    </person>
    <person id="ped205" depart="827.04" type="ped_pedestrian">
        <walk from="233487131#5" to="107057088"/>
    </person>
    <person id="ped206" depart="831.07" type="ped_pedestrian">
        <walk from="107057077#1" to="-177612410#4"/>
    </person>
    <person id="ped207" depart="835.11" type="ped_pedestrian">
        <walk from="177612401#1" to="178127277"/>
    </person>
    <person id="ped208" depart="839.14" type="ped_pedestrian">
        <walk from="394727931#0" to="-177618117#2"/>
    </person>
    <person id="ped209" depart="843.18" type="ped_pedestrian">
        <walk from="177621056#2" to="178132938#0"/>
    </person>
    <person id="ped210" depart="847.21" type="ped_pedestrian">
        <walk from="107057077#0" to="236668157#2"/>
    </person>
    <person id="ped211" depart="851.25" type="ped_pedestrian">
        <walk from="178127280#0" to="177612401#1"/>
    </person>
    <person id="ped212" depart="855.28" type="ped_pedestrian">
        <walk from="233487131#2" to="-177612410#1"/>
    </person>
    <person id="ped213" depart="859.31" type="ped_pedestrian">
        <walk from="236668158#6" to="236668165#2"/>
    </person>
    <person id="ped214" depart="863.35" type="ped_pedestrian">
        <walk from="-178123202#0" to="178122147"/>
    </person>
    <person id="ped215" depart="867.38" type="ped_pedestrian">
        <walk from="107057067#0" to="769039656#1"/>
    </person>
    <person id="ped216" depart="871.42" type="ped_pedestrian">
        <walk from="178127282#1" to="-177612803"/>
    </person>
    <person id="ped217" depart="875.45" type="ped_pedestrian">
        <walk from="177612406#1" to="394727931#0"/>
    </person>
    <person id="ped218" depart="879.49" type="ped_pedestrian">
        <walk from="178122151#8" to="236668176#5"/>
    </person>
    <person id="ped219" depart="883.52" type="ped_pedestrian">
        <walk from="233487131#4" to="769039656#7"/>
    </person>
    <person id="ped220" depart="887.56" type="ped_pedestrian">
        <walk from="178132478" to="769039656#0"/>
    </person>
    <person id="ped221" depart="891.59" type="ped_pedestrian">
        <walk from="495582292" to="178132682#1"/>
    </person>
    <person id="ped222" depart="895.62" type="ped_pedestrian">
        <walk from="236668157#8" to="178127281#0"/>
    </person>
    <person id="ped223" depart="899.66" type="ped_pedestrian">
        <walk from="28833560#2" to="178127283#5"/>
    </person>
    <person id="ped224" depart="903.69" type="ped_pedestrian">
        <walk from="495582293" to="236668158#4"/>
    </person>
    <person id="ped225" depart="907.73" type="ped_pedestrian">
        <walk from="178127277" to="177612410#0"/>
    </person>
    <person id="ped226" depart="911.76" type="ped_pedestrian">
        <walk from="177612406#1" to="178132938#1"/>
    </person>
    <person id="ped227" depart="915.80" type="ped_pedestrian">
        <walk from="236668165#2" to="178127283#0"/>
    </person>
    <person id="ped228" depart="919.83" type="ped_pedestrian">
        <walk from="178132682#3" to="177612410#3"/>
    </person>
    <person id="ped229" depart="923.86" type="ped_pedestrian">
        <walk from="-177618117#3" to="177612410#6"/>
    </person>
    <person id="ped230" depart="927.90" type="ped_pedestrian">
        <walk from="177612410#3" to="177617878#2"/>
    </person>
    <person id="ped231" depart="931.93" type="ped_pedestrian">
        <walk from="178127283#3" to="107057045#0"/>
    </person>