<?xml version="1.0" encoding="UTF-8"?>

<!-- generated on Sat Feb  8 02:33:50 2020 by Eclipse SUMO polyconvert Version 1.4.0
<configuration xmlns:xsi="http://www.w3.org/2001/XMLSchema-instance" xsi:noNamespaceSchemaLocation="http://sumo.dlr.de/xsd/polyconvertConfiguration.xsd">

    <input>
        <net-file value="osm.net.xml"/>
        <osm-files value="osm_bbox.osm.xml"/>
        <osm.keep-full-type value="true"/>
        <type-file value="/usr/share/sumo/data/typemap/osmPolyconvert.typ.xml"/>
    </input>

    <output>
        <output-file value="osm.poly.xml"/>
    </output>

    <processing>
        <poi-layer-offset value="5"/>
    </processing>

    <report>
        <verbose value="true"/>
    </report>

</configuration>
-->

<additional xmlns:xsi="http://www.w3.org/2001/XMLSchema-instance" xsi:noNamespaceSchemaLocation="http://sumo.dlr.de/xsd/additional_file.xsd">
    <location netOffset="-227532.36,-3376462.18" convBoundary="0.00,0.00,14109.26,17053.22" origBoundary="114.161123,30.490691,114.304995,30.645161" projParameter="+proj=utm +zone=50 +ellps=WGS84 +datum=WGS84 +units=m +no_defs"/>

    <poly id="177616385" type="landuse.residential" color="235,235,227" fill="1" layer="-3.00" shape="10749.399989,9128.965277 10977.175736,9199.286481 11010.496409,9214.366514 11110.205235,9273.359243 11140.335806,9068.260263 11084.288913,9050.656924 11048.774089,9032.989303 10934.766896,9000.470605 10776.272828,8941.794605 10772.815497,8990.050326 10749.399989,9128.965277"/>
    <poly id="177616387" type="landuse.retail" color="194,194,130" fill="1" layer="-3.00" shape="10916.593451,8722.264197 10775.420186,8715.334124 10776.104030,8916.614398 10909.818727,8951.804850 10916.593451,8722.264197"/>
    <poly id="177616462" type="landuse.residential" color="235,235,227" fill="1" layer="-3.00" shape="10549.005323,9041.087394 10379.925687,8970.370148 10360.939192,8951.870710 10371.797097,8741.522727 10403.893325,8751.937872 10432.753244,8773.781263 10470.941785,8816.488845 10502.294035,8838.194249 10582.165080,8882.886295 10617.541874,8894.409539 10614.416024,8913.956066 10602.775488,8922.437199 10564.915063,9020.631571 10557.713975,9017.810785 10549.005323,9041.087394"/>
    <poly id="177616465" type="landuse.residential" color="235,235,227" fill="1" layer="-3.00" shape="10715.660026,9118.001091 10626.697354,9080.706872 10565.109397,9046.842987 10603.085866,8935.232633 10607.521119,8926.926271 10619.645406,8917.412722 10625.832827,8896.249816 10751.899814,8934.708129 10723.921440,9100.815224 10715.660026,9118.001091"/>
    <poly id="177616466" type="landuse.retail" color="194,194,130" fill="1" layer="-3.00" shape="10742.739946,8918.011225 10594.858337,8871.894456 10597.197841,8798.559058 10570.194286,8704.423360 10583.747498,8693.255346 10689.741738,8710.665833 10744.255466,8707.291711 10753.312728,8911.020600 10742.739946,8918.011225"/>
    <poly id="177616467" type="landuse.residential" color="235,235,227" fill="1" layer="-3.00" shape="10379.128481,8661.908562 10401.440363,8665.516277 10549.749913,8689.542449 10582.724839,8820.877085 10578.322821,8869.732762 10483.311670,8816.699002 10429.862830,8757.531503 10404.253753,8742.265868 10372.967430,8729.623264 10379.128481,8661.908562"/>
    <poly id="177616522" type="landuse.residential" color="235,235,227" fill="1" layer="-3.00" shape="10152.877968,8718.648553 10142.367630,8797.741180 10068.105758,8790.404036 10077.460472,8709.209236 10152.877968,8718.648553"/>
    <poly id="177616523" type="landuse.residential" color="235,235,227" fill="1" layer="-3.00" shape="10305.445588,8935.799923 10147.016379,8858.681058 10163.160415,8717.888383 10341.267978,8739.113094 10333.412866,8921.286011 10327.445521,8930.140053 10319.843754,8934.939936 10305.445588,8935.799923"/>
    <poly id="177616524" type="landuse.retail" color="194,194,130" fill="1" layer="-3.00" shape="10132.249545,8865.707654 10061.504280,8857.686044 10068.105758,8790.404036 10142.367630,8797.741180 10132.249545,8865.707654"/>
    <poly id="177616525" type="landuse.residential" color="235,235,227" fill="1" layer="-3.00" shape="9971.838042,8707.161459 10068.214215,8709.944303 10058.793328,8791.573411 9979.391513,8784.872145 9971.838042,8707.161459"/>
    <poly id="177616526" type="landuse.retail" color="194,194,130" fill="1" layer="-3.00" shape="10050.421537,8857.112252 10022.856702,8856.584114 9984.363860,8819.599011 9979.391513,8784.872145 10058.793328,8791.573411 10050.421537,8857.112252"/>
    <poly id="177618349" type="landuse.retail" color="194,194,130" fill="1" layer="-3.00" shape="10025.302466,8914.937077 9991.679800,8951.112615 9994.816173,8995.613983 10034.892098,8995.072345 10035.756097,8963.875860 10069.638241,8962.464241 10068.501573,8933.868128 10134.410399,8933.298107 10133.444231,8914.871487 10025.302466,8914.937077"/>
    <poly id="177618350" type="landuse.commercial" color="209,209,204" fill="1" layer="-3.00" shape="10085.482980,9489.499455 10054.012990,9481.477695 10031.032848,9299.110557 10045.009132,9301.843931 10145.641750,9353.194938 10085.482980,9489.499455"/>
    <poly id="177618351" type="landuse.residential" color="235,235,227" fill="1" layer="-3.00" shape="10037.494149,9014.047213 10041.762270,9065.621533 10051.071387,9063.930761 10052.938855,9080.726781 10088.965724,9076.334110 10134.410399,8933.298107 10068.501573,8933.868128 10069.638241,8962.464241 10035.756097,8963.875860 10034.892098,8995.072345 10037.494149,9014.047213"/>
    <poly id="177618352" type="leisure.park" color="207,245,201" fill="1" layer="-2.00" shape="10003.802031,9068.674556 10041.762270,9065.621533 10037.494149,9014.047213 10034.892098,8995.072345 9994.816173,8995.613983 10003.802031,9068.674556"/>
    <poly id="177618500" type="landuse.cemetery" color="194,194,130" fill="1" layer="-3.00" shape="10209.910407,9214.106213 10168.435075,9192.181703 10178.329086,9170.318172 10200.826217,9179.612343 10208.900194,9162.253043 10228.985141,9173.414274 10209.910407,9214.106213"/>
    <poly id="177618501" type="landuse.residential" color="235,235,227" fill="1" layer="-3.00" shape="10149.219051,9343.577848 10041.558662,9287.061213 10030.200602,9285.806317 10006.619281,9078.335919 10043.622229,9075.394931 10048.219585,9098.259834 10093.934834,9093.565090 10109.528034,9053.800727 10121.417065,9055.564263 10159.806233,8918.846213 10317.935898,8983.668710 10228.985141,9173.414274 10208.900194,9162.253043 10200.826217,9179.612343 10178.329086,9170.318172 10168.435075,9192.181703 10209.910407,9214.106213 10149.219051,9343.577848"/>
    <poly id="177618533" type="landuse.residential" color="235,235,227" fill="1" layer="-3.00" shape="10401.214161,9359.290548 10319.915723,9319.760367 10358.311423,9225.567979 10387.595278,9237.238348 10465.045464,9046.619578 10536.947244,9074.685445 10401.214161,9359.290548"/>
    <poly id="177618833" type="landuse.residential" color="235,235,227" fill="1" layer="-3.00" shape="10544.869313,9082.692008 10714.032535,9156.981951 10603.025013,9442.005315 10559.437985,9428.717781 10569.715872,9406.434845 10552.573398,9400.194145 10579.925985,9318.052945 10457.463200,9274.095397 10456.023772,9262.647589 10491.099570,9180.329781 10503.477470,9159.526866 10538.640942,9080.790663 10544.869313,9082.692008"/>
    <poly id="177618834" type="landuse.residential" color="235,235,227" fill="1" layer="-3.00" shape="10507.702442,9673.363151 10123.582912,9504.893301 10176.922682,9368.832392 10232.083010,9392.598902 10353.444678,9491.620202 10419.321258,9387.463515 10596.697298,9460.531215 10507.702442,9673.363151"/>
    <poly id="177618835" type="landuse.residential" color="235,235,227" fill="1" layer="-3.00" shape="10579.925985,9318.052945 10552.573398,9400.194145 10569.715872,9406.434845 10559.437985,9428.717781 10417.938339,9369.646123 10457.463200,9274.095397 10579.925985,9318.052945"/>
    <poly id="177618836" type="landuse.retail" color="194,194,130" fill="1" layer="-3.00" shape="10353.444678,9491.620202 10232.083010,9392.598902 10176.922682,9368.832392 10205.126900,9300.515189 10419.321258,9387.463515 10353.444678,9491.620202"/>
    <poly id="177619255" type="landuse.industrial" color="209,209,204" fill="1" layer="-3.00" shape="10744.395857,9368.382015 10666.275073,9332.355807 10687.674786,9280.602754 10759.820782,9306.955448 10744.395857,9368.382015"/>
    <poly id="177619256" type="landuse.commercial" color="209,209,204" fill="1" layer="-3.00" shape="10727.023055,9182.805396 10781.548739,9204.970278 10770.945481,9380.552329 10744.395857,9368.382015 10759.820782,9306.955448 10687.674786,9280.602754 10727.023055,9182.805396"/>
    <poly id="177619257" type="landuse.retail" color="194,194,130" fill="1" layer="-3.00" shape="10675.404230,9983.344008 10442.732722,9880.842245 10521.653131,9703.545359 10757.597172,9807.489651 10744.971655,9835.875818 10561.481797,9755.033254 10503.150851,9886.054317 10683.369339,9965.455162 10675.404230,9983.344008"/>
    <poly id="177619258" type="landuse.residential" color="235,235,227" fill="1" layer="-3.00" shape="10763.114707,9791.180184 10524.813506,9679.116351 10611.328776,9466.943836 10866.180473,9573.383256 10763.114707,9791.180184"/>
    <poly id="177619259" type="landuse.retail" color="194,194,130" fill="1" layer="-3.00" shape="10872.548669,9556.909032 10780.795311,9510.450995 10799.304560,9466.967017 10776.439933,9458.301900 10792.891769,9417.852201 10784.109310,9413.538602 10790.369706,9398.952995 10918.927134,9455.280852 10872.548669,9556.909032"/>
    <poly id="177619260" type="landuse.residential" color="235,235,227" fill="1" layer="-3.00" shape="10731.930011,9491.654822 10677.314573,9468.904478 10707.211470,9385.170923 10759.737060,9406.441090 10767.558833,9389.343555 10790.369706,9398.952995 10784.109310,9413.538602 10792.891769,9417.852201 10776.439933,9458.301900 10799.304560,9466.967017 10780.795311,9510.450995 10731.930011,9491.654822"/>
    <poly id="177619262" type="landuse.retail" color="194,194,130" fill="1" layer="-3.00" shape="10677.314573,9468.904478 10628.892157,9447.013743 10669.621020,9346.031737 10767.558833,9389.343555 10759.737060,9406.441090 10707.211470,9385.170923 10677.314573,9468.904478"/>
    <poly id="177619263" type="landuse.commercial" color="209,209,204" fill="1" layer="-3.00" shape="10921.517086,9445.299698 10776.652525,9381.944990 10790.554372,9233.530856 10805.723615,9179.355256 11001.883101,9241.212774 10945.247897,9390.672776 10921.517086,9445.299698"/>
    <poly id="177619267" type="landuse.retail" color="194,194,130" fill="1" layer="-3.00" shape="10429.353522,9853.641758 10299.450259,9791.650020 10290.172017,9812.366897 10027.655460,9689.629864 10102.700644,9514.620405 10499.864859,9692.946480 10429.353522,9853.641758"/>
    <poly id="178125311" type="landuse.residential" color="235,235,227" fill="1" layer="-3.00" shape="9619.881788,8792.132367 9514.154800,8797.214350 9509.911023,8771.179015 9359.380405,8786.129639 9360.370206,8765.292162 9439.823906,8750.042694 9499.502105,8726.544099 9563.661410,8715.562299 9611.422816,8712.036225 9619.881788,8792.132367"/>
    <poly id="178125317" type="landuse.retail" color="194,194,130" fill="1" layer="-3.00" shape="9892.841435,8867.933298 9713.460256,8861.025699 9711.814902,8793.422543 9817.175121,8784.712430 9815.872048,8752.459152 9908.316631,8742.011711 9924.560552,8837.961183 9892.841435,8867.933298"/>
    <poly id="178125319" type="landuse.retail" color="194,194,130" fill="1" layer="-3.00" shape="9371.097906,8844.256826 9362.160564,8836.786119 9353.579168,8822.650018 9359.380405,8786.129639 9509.911023,8771.179015 9514.154800,8797.214350 9619.881788,8792.132367 9623.557559,8848.868976 9371.097906,8844.256826"/>
    <poly id="178125320" type="landuse.residential" color="235,235,227" fill="1" layer="-3.00" shape="9706.523635,8850.943205 9646.200253,8848.317721 9641.363870,8839.726270 9631.469643,8710.527472 9900.054529,8679.395668 9908.316631,8742.011711 9815.872048,8752.459152 9817.175121,8784.712430 9711.814902,8793.422543 9706.523635,8850.943205"/>
    <poly id="178125685" type="landuse.residential" color="235,235,227" fill="1" layer="-3.00" shape="8379.882314,8934.049965 8353.448458,8905.994810 8337.249043,8833.632492 8299.178308,8731.772132 8279.110730,8688.494808 8280.897906,8677.178920 8297.796982,8652.168604 8420.776106,8584.589549 8497.092667,8547.797576 8510.357782,8541.404517 8604.081195,8499.139783 8649.077761,8485.747426 8698.240414,8474.294898 8773.261402,8467.336757 8845.317998,8465.577219 8911.105278,8459.877291 8987.002836,8446.741771 9096.726033,8426.646382 9259.803941,8398.073235 9291.566477,8391.152646 9301.025159,8399.120972 9317.882939,8499.148959 9343.344514,8679.624568 9324.595425,8816.699711 9316.388973,8841.185697 9303.129673,8846.634584 9082.340703,8873.542362 8926.849034,8894.034383 8724.875500,8913.012561 8560.867655,8922.445881 8379.882314,8934.049965"/>
    <poly id="178127867" type="landuse.construction" color="194,194,130" fill="1" layer="-3.00" shape="8929.959757,9274.691350 8711.453187,9225.709139 8712.495442,9165.428851 8931.379015,9184.979142 8929.959757,9274.691350"/>
    <poly id="178127871" type="leisure.park" color="207,245,201" fill="1" layer="-2.00" shape="8712.065504,9082.218703 8709.757666,9051.021584 8753.953318,9047.378981 8749.788075,9003.412974 8825.766527,8993.358255 8821.426383,8942.218320 8939.376470,8928.221629 8948.306516,8992.407691 8989.475554,8991.402809 8987.865195,9072.920704 8861.397608,9081.644273 8798.685881,9107.772565 8790.687069,9077.424510 8713.692704,9106.775689 8712.065504,9082.218703"/>
    <poly id="178127872" type="landuse.residential" color="235,235,227" fill="1" layer="-3.00" shape="9277.571157,9359.160299 8929.959757,9274.691350 8931.379015,9184.979142 9287.924661,9213.691222 9277.571157,9359.160299"/>
    <poly id="178127873" type="landuse.residential" color="235,235,227" fill="1" layer="-3.00" shape="8939.376470,8928.221629 8948.306516,8992.407691 8989.475554,8991.402809 8987.865195,9072.920704 8861.397608,9081.644273 8798.685881,9107.772565 8790.687069,9077.424510 8713.692704,9106.775689 8717.908225,9152.792974 9102.260058,9183.582276 9115.915373,9046.430904 9111.730026,9041.717966 9114.344644,9022.183215 9117.517541,9004.676247 9131.166183,8973.089908 9127.854673,8902.664732 8939.376470,8928.221629"/>
    <poly id="178127930" type="landuse.residential" color="235,235,227" fill="1" layer="-3.00" shape="9291.059127,9200.900443 9111.670877,9187.246869 9121.971931,9041.667813 9118.317117,9037.452280 9121.808482,9011.749755 9126.092770,8997.299968 9136.240732,8972.145125 9134.101147,8903.322266 9241.994328,8893.013579 9293.808509,8886.824363 9308.636672,8901.629141 9291.059127,9200.900443"/>
    <poly id="178128304" type="landuse.retail" color="194,194,130" fill="1" layer="-3.00" shape="9704.342167,8894.630998 9877.665262,8902.329229 9944.082404,8965.283820 9949.421534,9013.115445 9929.415576,9016.675144 9922.175406,8972.783919 9863.820991,8923.989598 9702.917333,8914.580320 9704.342167,8894.630998"/>
    <poly id="178128305" type="landuse.retail" color="194,194,130" fill="1" layer="-3.00" shape="9989.150046,9651.624587 9856.882171,9591.303923 9860.892992,9565.589122 9980.592511,9577.233334 9990.207607,9483.539502 10007.120667,9482.307223 10014.138441,9578.259228 9997.276242,9649.074929 9989.150046,9651.624587"/>
    <poly id="178128306" type="landuse.commercial" color="209,209,204" fill="1" layer="-3.00" shape="9532.802359,9224.631679 9529.315535,9102.765547 9685.074358,9112.297241 9678.935499,9241.054304 9532.802359,9224.631679"/>
    <poly id="178128307" type="landuse.residential" color="235,235,227" fill="1" layer="-3.00" shape="9702.020457,9248.846491 9711.864017,9114.918002 9864.052368,9126.081283 9863.648625,9151.708298 9956.681635,9158.099160 9968.863801,9284.424303 9702.020457,9248.846491"/>
    <poly id="178128308" type="landuse.retail" color="194,194,130" fill="1" layer="-3.00" shape="9921.457487,9091.678831 9929.415576,9016.675144 9949.421534,9013.115445 9961.025711,9090.405903 9950.303053,9091.997998 9921.457487,9091.678831"/>
    <poly id="178128309" type="landuse.retail" color="194,194,130" fill="1" layer="-3.00" shape="9999.562720,9423.357385 9993.657893,9441.074645 9973.041922,9438.070140 9969.582263,9291.862328 9968.863801,9284.424303 9956.681635,9158.099160 9955.704683,9147.927083 9950.303053,9091.997998 9961.025711,9090.405903 9999.562720,9423.357385"/>
    <poly id="178128310" type="landuse.residential" color="235,235,227" fill="1" layer="-3.00" shape="9663.208109,9504.299667 9527.529850,9433.004485 9373.833819,9379.146849 9310.146376,9364.823086 9321.336037,9213.076370 9701.517749,9258.954736 9681.930388,9408.231244 9666.786155,9418.640502 9663.208109,9504.299667"/>
    <poly id="178128311" type="landuse.residential" color="235,235,227" fill="1" layer="-3.00" shape="9677.742686,9509.071444 9732.995206,9517.667005 9742.405482,9521.332114 9738.227372,9542.136183 9842.915775,9588.570580 9857.503729,9449.567605 9988.214594,9465.137831 9993.657893,9441.074645 9973.041922,9438.070140 9969.582263,9291.862328 9710.304717,9260.271879 9690.157621,9426.780680 9679.851008,9426.521259 9672.854039,9477.426858 9680.096237,9478.781572 9677.742686,9509.071444"/>
    <poly id="178128312" type="landuse.residential" color="235,235,227" fill="1" layer="-3.00" shape="9328.465260,9081.010583 9514.031983,9090.523351 9521.985987,8886.190305 9357.089864,8882.009005 9339.964069,8897.792347 9328.465260,9081.010583"/>
    <poly id="178128313" type="landuse.residential" color="235,235,227" fill="1" layer="-3.00" shape="9691.349848,9095.225344 9702.917333,8914.580320 9863.820991,8923.989598 9922.175406,8972.783919 9929.415576,9016.675144 9921.457487,9091.678831 9950.303053,9091.997998 9955.704683,9147.927083 9878.358224,9140.378008 9883.365521,9115.360156 9691.349848,9095.225344"/>
    <poly id="178128314" type="landuse.residential" color="235,235,227" fill="1" layer="-3.00" shape="9678.546460,9098.099854 9689.980754,8893.061211 9647.247600,8891.338934 9637.778765,9095.453375 9678.546460,9098.099854"/>
    <poly id="178128315" type="landuse.residential" color="235,235,227" fill="1" layer="-3.00" shape="9514.101521,9217.909058 9494.130733,9222.500547 9321.635029,9202.107665 9327.723027,9095.063279 9511.760286,9102.882521 9514.101521,9217.909058"/>
    <poly id="178128316" type="landuse.commercial" color="209,209,204" fill="1" layer="-3.00" shape="9637.778765,9095.453375 9528.470259,9088.951259 9532.851591,8888.488497 9647.247600,8891.338934 9637.778765,9095.453375"/>
    <poly id="178133448" type="landuse.retail" color="194,194,130" fill="1" layer="-3.00" shape="9540.271439,9493.026171 9970.235487,9705.138486 9961.649687,9723.520102 9531.163405,9516.746274 9540.271439,9493.026171"/>
    <poly id="178133453" type="landuse.residential" color="235,235,227" fill="1" layer="-3.00" shape="9961.649687,9723.520102 9912.972203,9822.568817 9888.993498,9810.338057 9696.829455,9764.291088 9676.583856,9800.131209 9576.442976,9750.004220 9506.376206,9746.385831 9531.163405,9516.746274 9961.649687,9723.520102"/>
    <poly id="178133456" type="landuse.residential" color="235,235,227" fill="1" layer="-3.00" shape="9517.629508,9933.642695 9443.052368,9894.976094 9489.492522,9816.171409 9505.043721,9755.127513 9574.707476,9761.118842 9595.706836,9777.515401 9679.411231,9812.565893 9700.140161,9775.682217 9852.389561,9808.665886 9881.963337,9817.687254 9902.825035,9828.451697 9896.855811,9839.558299 9707.253452,9790.675239 9655.956842,9904.655809 9624.848099,9895.672447 9548.789289,9859.615151 9517.629508,9933.642695"/>
    <poly id="178133815" type="landuse.residential" color="235,235,227" fill="1" layer="-3.00" shape="9283.974342,9726.467085 9291.285642,9605.080712 9305.707831,9605.239398 9382.174304,9612.228648 9369.135991,9735.385377 9283.974342,9726.467085"/>
    <poly id="178133816" type="landuse.retail" color="194,194,130" fill="1" layer="-3.00" shape="9429.813255,9879.932820 9295.772163,9809.932243 9283.867611,9786.646600 9284.676034,9737.134037 9367.713615,9742.797931 9360.003648,9806.513321 9442.041662,9853.507109 9429.813255,9879.932820"/>
    <poly id="178133817" type="landuse.residential" color="235,235,227" fill="1" layer="-3.00" shape="9493.495090,9756.673688 9480.698531,9812.580273 9451.433271,9858.381709 9442.041662,9853.507109 9360.003648,9806.513321 9367.713615,9742.797931 9493.495090,9756.673688"/>
    <poly id="178133818" type="landuse.residential" color="235,235,227" fill="1" layer="-3.00" shape="9375.556535,9735.328709 9497.041263,9745.415075 9518.691418,9511.924438 9397.443164,9460.049757 9320.620837,9437.325803 9305.707831,9605.239398 9382.174304,9612.228648 9389.832510,9612.929539 9375.556535,9735.328709"/>
    <poly id="178133819" type="landuse.retail" color="194,194,130" fill="1" layer="-3.00" shape="9305.707831,9605.239398 9291.285642,9605.080712 9307.260503,9436.630838 9313.304996,9412.086541 9370.853980,9425.849871 9450.767480,9450.551343 9528.427071,9489.143163 9518.691418,9511.924438 9397.443164,9460.049757 9320.620837,9437.325803 9305.707831,9605.239398"/>
    <poly id="178165778" type="landuse.residential" color="235,235,227" fill="1" layer="-3.00" shape="9239.213250,9793.393886 9110.479216,9793.461366 8915.915861,9797.179176 8920.684749,9574.993254 8931.568601,9430.231514 8877.992230,9425.082710 8885.311025,9349.371975 8916.432606,9354.458895 8923.437602,9346.088955 9258.204322,9432.202059 9251.818454,9550.204222 9267.304839,9551.879055 9250.308636,9783.892587 9239.213250,9793.393886"/>
    <poly id="178165782" type="landuse.railway" color="194,194,130" fill="1" layer="-3.00" shape="8365.730328,9240.841239 8372.035654,9208.201858 8524.055201,9233.174356 8735.082468,9271.063470 9277.895594,9399.237024 9271.363084,9422.661602 8915.832395,9329.876840 8909.938535,9341.292855 8522.666558,9256.473746 8365.730328,9240.841239"/>
    <poly id="178165787" type="landuse.construction" color="194,194,130" fill="1" layer="-3.00" shape="8826.269576,9795.274857 8915.915861,9797.179176 8920.684749,9574.993254 8931.568601,9430.231514 8877.992230,9425.082710 8885.311025,9349.371975 8791.069838,9328.108775 8756.374853,9801.076449 8826.269576,9795.274857"/>
    <poly id="178441771" type="landuse.retail" color="194,194,130" fill="1" layer="-3.00" shape="9972.908210,10095.211559 9905.213716,10064.318272 9886.653943,10010.462245 10017.437627,9724.193597 10263.893779,9842.960391 10128.235618,10024.057453 10062.832116,9981.580312 9997.239345,10100.255728 9972.908210,10095.211559"/>
    <poly id="379848753" type="building.house" color="255,230,230" fill="1" layer="-1.00" shape="10501.717072,9237.696607 10522.023431,9246.134832 10527.626049,9235.703239 10506.359928,9228.064905 10506.243393,9231.174175 10501.717072,9237.696607"/>
    <poly id="690674915" type="amenity.hospital" color="237,199,199" fill="1" layer="-1.00" shape="10365.915203,9004.592739 10465.045464,9046.619578 10387.595278,9237.238348 10358.311423,9225.567979 10319.915723,9319.760367 10238.401643,9285.605702 10227.659935,9265.463944 10322.770192,9051.893130 10343.146392,9061.605228 10365.915203,9004.592739"/>
    <poi id="1186631477" type="shop.mall" color="237,199,255" layer="4.00" x="10614.30" y="9688.42"/>
    <poi id="1880341146" type="shop.supermarket" color="237,199,255" layer="4.00" x="10015.05" y="8811.70"/>
    <poi id="1880341158" type="amenity.parking" color="184,184,179" layer="4.00" x="10005.17" y="8850.37"/>
    <poi id="1880352112" type="amenity.school" color="237,199,199" layer="4.00" x="10551.68" y="8812.48"/>
    <poi id="1880352140" type="amenity.school" color="237,199,199" layer="4.00" x="10631.26" y="8845.42"/>
    <poi id="1880372572" type="amenity.school" color="237,199,199" layer="4.00" x="10134.22" y="9096.25"/>
    <poi id="1880372583" type="amenity.school" color="237,199,199" layer="4.00" x="10209.69" y="8959.16"/>
    <poi id="1880377856" type="amenity.school" color="237,199,199" layer="4.00" x="10471.24" y="9593.82"/>
    <poi id="1880377863" type="amenity.school" color="237,199,199" layer="4.00" x="10581.26" y="9246.32"/>
    <poi id="1880377867" type="amenity.school" color="237,199,199" layer="4.00" x="10361.71" y="9578.56"/>
    <poi id="1880380415" type="amenity.school" color="237,199,199" layer="4.00" x="10687.25" y="9541.95"/>
    <poi id="1884998881" type="amenity.police" color="237,199,199" layer="4.00" x="9498.08" y="8836.06"/>
    <poi id="1885003792" type="amenity.school" color="237,199,199" layer="4.00" x="9241.73" y="8822.56"/>
    <poi id="1885028044" type="amenity.school" color="237,199,199" layer="4.00" x="9223.23" y="8967.26"/>
    <poi id="1885028487" type="amenity.school" color="237,199,199" layer="4.00" x="9099.02" y="8967.42"/>
    <poi id="1885032321" type="amenity.cinema" color="237,199,199" layer="4.00" x="9467.62" y="8919.51"/>
    <poi id="1885032322" type="amenity.school" color="237,199,199" layer="4.00" x="9474.02" y="9140.21"/>
    <poi id="1885032359" type="amenity.bank" color="237,199,199" layer="4.00" x="9987.48" y="9374.69"/>
    <poi id="1885032369" type="amenity.school" color="237,199,199" layer="4.00" x="9628.38" y="9431.06"/>
    <poi id="1885032374" type="amenity.school" color="237,199,199" layer="4.00" x="9802.17" y="9058.20"/>
    <poi id="1885032389" type="amenity.post_office" color="237,199,199" layer="4.00" x="9941.72" y="9078.89"/>
    <poi id="1885032393" type="shop.books" color="237,199,255" layer="4.00" x="9900.56" y="8934.06"/>
    <poi id="1885032400" type="amenity.bank" color="237,199,199" layer="4.00" x="9954.32" y="9302.71"/>
    <poi id="1885032406" type="amenity.bank" color="237,199,199" layer="4.00" x="9621.66" y="8900.90"/>
    <poi id="1885032410" type="amenity.parking" color="184,184,179" layer="4.00" x="9920.90" y="9514.45"/>
    <poi id="1885038449" type="amenity.townhall" color="237,199,199" layer="4.00" x="9656.82" y="9373.03"/>
    <poi id="1885080773" type="amenity.townhall" color="237,199,199" layer="4.00" x="9417.14" y="9762.40"/>
    <poi id="1885087556" type="amenity.school" color="237,199,199" layer="4.00" x="9664.18" y="9632.10"/>
    <poi id="1885371292" type="amenity.school" color="237,199,199" layer="4.00" x="9203.93" y="9493.33"/>
    <poi id="1885371300" type="amenity.parking" color="184,184,179" layer="4.00" x="9227.11" y="9768.43"/>
    <poi id="1885371302" type="amenity.school" color="237,199,199" layer="4.00" x="9031.88" y="9533.39"/>
    <poi id="1885371303" type="leisure.sports_centre" color="207,245,201" layer="3.00" x="9191.00" y="9723.14"/>
    <poi id="2289778023" type="amenity.marketplace" color="237,199,199" layer="4.00" x="10196.90" y="9340.07"/>
    <poi id="2289778023#1" type="shop.mobile_phone" color="237,199,255" layer="4.00" x="10196.90" y="9340.07"/>
    <poi id="5928709785" type="shop.convenience" color="237,199,255" layer="4.00" x="9864.53" y="8854.54"/>
</additional>
